MODEL 1
REMARK VINA RESULT:    -7.807      0.000      0.000
REMARK INTER + INTRA:         -14.885
REMARK INTER:                 -13.969
REMARK INTRA:                  -0.916
REMARK UNBOUND:                -0.916
REMARK SMILES CN(C)[C@H]1C(O)=C(C(=O)NCNC(CCCCN)C(=O)O)C(=O)[C@]2(O)C(O)=C3C(=O)c4c(O)cccc4[C@](C)(O)[C@@H]3C[C@H]12
REMARK SMILES IDX 13 1 12 2 11 4 10 5 8 6 9 7 7 9 4 10 5 11 43 12 24 13 42 14
REMARK SMILES IDX 22 15 26 16 41 17 23 18 28 19 38 20 29 21 37 22 39 23 30 24
REMARK SMILES IDX 31 25 36 26 32 27 35 28 34 29 2 30 1 31 3 32 6 33 25 35
REMARK SMILES IDX 27 37 40 39 33 41 14 43 15 44 16 45 17 46 18 47 19 50 20 51
REMARK SMILES IDX 21 52
REMARK H PARENT 12 3 10 8 6 34 25 36 27 38 40 40 33 42 18 48 18 49 21 53
REMARK Flexibility Score: inf
ROOT
ATOM      1  C   UNL     1      -4.360  10.062   7.127  1.00  0.00     0.166 C 
ENDROOT
BRANCH   1   2
ATOM      2  N   UNL     1      -5.430   9.627   6.373  1.00  0.00    -0.287 NA
ATOM      3  H   UNL     1      -5.073   9.083   5.516  1.00  0.00     0.125 HD
BRANCH   2   4
ATOM      4  C   UNL     1      -6.551   8.886   6.887  1.00  0.00     0.202 C 
BRANCH   4   5
ATOM      5  N   UNL     1      -7.718   9.494   6.232  1.00  0.00    -0.339 N 
ATOM      6  C   UNL     1      -9.029   9.488   6.651  1.00  0.00     0.259 C 
ATOM      7  O   UNL     1      -9.338   8.820   7.663  1.00  0.00    -0.269 OA
ATOM      8  H   UNL     1      -7.510   9.952   5.287  1.00  0.00     0.165 HD
BRANCH   6   9
ATOM      9  C   UNL     1     -10.042  10.285   5.886  1.00  0.00     0.125 C 
ATOM     10  C   UNL     1     -12.192  10.531   4.673  1.00  0.00     0.130 C 
ATOM     11  C   UNL     1     -11.154   9.792   5.441  1.00  0.00     0.126 C 
ATOM     12  C   UNL     1     -12.033  11.968   4.591  1.00  0.00     0.062 C 
ATOM     13  C   UNL     1     -10.614  12.477   4.697  1.00  0.00     0.190 C 
ATOM     14  C   UNL     1     -12.938  12.814   5.475  1.00  0.00     0.021 C 
ATOM     15  C   UNL     1      -9.783  11.720   5.662  1.00  0.00     0.211 C 
ATOM     16  C   UNL     1     -10.542  13.916   4.860  1.00  0.00     0.140 C 
ATOM     17  C   UNL     1     -12.958  14.168   4.726  1.00  0.00     0.063 C 
ATOM     18  O   UNL     1      -8.868  12.271   6.287  1.00  0.00    -0.290 OA
ATOM     19  C   UNL     1     -11.618  14.723   4.873  1.00  0.00     0.048 C 
ATOM     20  C   UNL     1     -14.098  14.994   5.195  1.00  0.00     0.095 C 
ATOM     21  C   UNL     1     -11.425  16.161   5.031  1.00  0.00     0.197 C 
ATOM     22  C   UNL     1     -13.851  16.425   5.144  1.00  0.00    -0.001 A 
ATOM     23  C   UNL     1     -15.301  14.594   4.379  1.00  0.00     0.048 C 
ATOM     24  O   UNL     1     -10.267  16.654   5.054  1.00  0.00    -0.289 OA
ATOM     25  C   UNL     1     -12.596  17.018   5.161  1.00  0.00     0.070 A 
ATOM     26  C   UNL     1     -14.950  17.290   5.157  1.00  0.00     0.008 A 
ATOM     27  C   UNL     1     -12.428  18.410   5.193  1.00  0.00     0.127 A 
ATOM     28  C   UNL     1     -14.772  18.658   5.186  1.00  0.00     0.004 A 
ATOM     29  C   UNL     1     -13.538  19.236   5.205  1.00  0.00     0.047 A 
BRANCH  10  30
ATOM     30  N   UNL     1     -12.151   9.972   3.305  1.00  0.00    -0.299 NA
ATOM     31  C   UNL     1     -13.404   9.458   2.872  1.00  0.00     0.105 C 
ATOM     32  C   UNL     1     -11.050   9.092   3.097  1.00  0.00     0.105 C 
ENDBRANCH  10  30
BRANCH  11  33
ATOM     33  O   UNL     1     -11.490   8.465   5.648  1.00  0.00    -0.510 OA
ATOM     34  H   UNL     1     -12.278   8.124   6.173  1.00  0.00     0.293 HD
ENDBRANCH  11  33
BRANCH  13  35
ATOM     35  O   UNL     1     -10.023  12.169   3.427  1.00  0.00    -0.374 OA
ATOM     36  H   UNL     1      -9.212  11.636   3.711  1.00  0.00     0.212 HD
ENDBRANCH  13  35
BRANCH  16  37
ATOM     37  O   UNL     1      -9.299  14.512   5.015  1.00  0.00    -0.508 OA
ATOM     38  H   UNL     1      -8.511  13.856   4.953  1.00  0.00     0.293 HD
ENDBRANCH  16  37
BRANCH  20  39
ATOM     39  O   UNL     1     -14.437  14.637   6.542  1.00  0.00    -0.385 OA
ATOM     40  H   UNL     1     -15.348  14.930   6.736  1.00  0.00     0.211 HD
ENDBRANCH  20  39
BRANCH  27  41
ATOM     41  O   UNL     1     -11.211  19.008   5.206  1.00  0.00    -0.507 OA
ATOM     42  H   UNL     1     -10.284  18.809   5.246  1.00  0.00     0.293 HD
ENDBRANCH  27  41
ENDBRANCH   6   9
ENDBRANCH   4   5
ENDBRANCH   2   4
ENDBRANCH   1   2
BRANCH   1  43
ATOM     43  C   UNL     1      -4.381  11.343   7.807  1.00  0.00     0.031 C 
BRANCH  43  44
ATOM     44  C   UNL     1      -5.501  12.262   7.458  1.00  0.00     0.004 C 
BRANCH  44  45
ATOM     45  C   UNL     1      -5.254  13.708   7.282  1.00  0.00     0.015 C 
BRANCH  45  46
ATOM     46  C   UNL     1      -6.314  14.673   6.999  1.00  0.00     0.077 C 
BRANCH  46  47
ATOM     47  N   UNL     1      -6.447  15.234   5.708  1.00  0.00    -0.330 NA
ATOM     48  H   UNL     1      -6.426  14.636   4.891  1.00  0.00     0.118 HD
ATOM     49  H   UNL     1      -7.096  16.059   5.622  1.00  0.00     0.118 HD
ENDBRANCH  46  47
ENDBRANCH  45  46
ENDBRANCH  44  45
ENDBRANCH  43  44
ENDBRANCH   1  43
BRANCH   1  50
ATOM     50  C   UNL     1      -3.094   9.909   6.261  1.00  0.00     0.320 C 
ATOM     51  O   UNL     1      -1.997  10.310   6.706  1.00  0.00    -0.251 OA
BRANCH  50  52
ATOM     52  O   UNL     1      -3.108   9.349   5.018  1.00  0.00    -0.480 OA
ATOM     53  H   UNL     1      -2.291   8.839   4.656  1.00  0.00     0.296 HD
ENDBRANCH  50  52
ENDBRANCH   1  50
TORSDOF 17
ENDMDL
MODEL 2
REMARK VINA RESULT:    -7.695      2.963      5.629
REMARK INTER + INTRA:         -14.684
REMARK INTER:                 -13.067
REMARK INTRA:                  -1.616
REMARK UNBOUND:                -0.916
REMARK SMILES CN(C)[C@H]1C(O)=C(C(=O)NCNC(CCCCN)C(=O)O)C(=O)[C@]2(O)C(O)=C3C(=O)c4c(O)cccc4[C@](C)(O)[C@@H]3C[C@H]12
REMARK SMILES IDX 13 1 12 2 11 4 10 5 8 6 9 7 7 9 4 10 5 11 43 12 24 13 42 14
REMARK SMILES IDX 22 15 26 16 41 17 23 18 28 19 38 20 29 21 37 22 39 23 30 24
REMARK SMILES IDX 31 25 36 26 32 27 35 28 34 29 2 30 1 31 3 32 6 33 25 35
REMARK SMILES IDX 27 37 40 39 33 41 14 43 15 44 16 45 17 46 18 47 19 50 20 51
REMARK SMILES IDX 21 52
REMARK H PARENT 12 3 10 8 6 34 25 36 27 38 40 40 33 42 18 48 18 49 21 53
REMARK Flexibility Score: inf
ROOT
ATOM      1  C   UNL     1      -7.201  14.987   7.930  1.00  0.00     0.166 C 
ENDROOT
BRANCH   1   2
ATOM      2  N   UNL     1      -7.990  16.117   7.902  1.00  0.00    -0.287 NA
ATOM      3  H   UNL     1      -8.050  16.494   6.896  1.00  0.00     0.125 HD
BRANCH   2   4
ATOM      4  C   UNL     1      -9.318  16.208   8.449  1.00  0.00     0.202 C 
BRANCH   4   5
ATOM      5  N   UNL     1     -10.132  15.357   7.570  1.00  0.00    -0.339 N 
ATOM      6  C   UNL     1     -10.285  15.442   6.205  1.00  0.00     0.259 C 
ATOM      7  O   UNL     1      -9.760  16.402   5.596  1.00  0.00    -0.269 OA
ATOM      8  H   UNL     1     -10.707  14.612   8.080  1.00  0.00     0.165 HD
BRANCH   6   9
ATOM      9  C   UNL     1     -11.069  14.382   5.492  1.00  0.00     0.125 C 
ATOM     10  C   UNL     1     -11.442  12.045   4.748  1.00  0.00     0.130 C 
ATOM     11  C   UNL     1     -10.710  13.138   5.442  1.00  0.00     0.126 C 
ATOM     12  C   UNL     1     -12.766  12.366   4.256  1.00  0.00     0.062 C 
ATOM     13  C   UNL     1     -13.004  13.820   3.917  1.00  0.00     0.190 C 
ATOM     14  C   UNL     1     -13.947  11.836   5.057  1.00  0.00     0.021 C 
ATOM     15  C   UNL     1     -12.339  14.762   4.846  1.00  0.00     0.211 C 
ATOM     16  C   UNL     1     -14.402  14.120   3.674  1.00  0.00     0.140 C 
ATOM     17  C   UNL     1     -15.075  11.804   3.999  1.00  0.00     0.063 C 
ATOM     18  O   UNL     1     -12.832  15.871   5.093  1.00  0.00    -0.290 OA
ATOM     19  C   UNL     1     -15.382  13.198   3.703  1.00  0.00     0.048 C 
ATOM     20  C   UNL     1     -16.188  10.942   4.465  1.00  0.00     0.095 C 
ATOM     21  C   UNL     1     -16.754  13.614   3.430  1.00  0.00     0.197 C 
ATOM     22  C   UNL     1     -17.497  11.354   3.986  1.00  0.00    -0.001 A 
ATOM     23  C   UNL     1     -15.853   9.528   4.062  1.00  0.00     0.048 C 
ATOM     24  O   UNL     1     -17.009  14.794   3.073  1.00  0.00    -0.289 OA
ATOM     25  C   UNL     1     -17.827  12.638   3.576  1.00  0.00     0.070 A 
ATOM     26  C   UNL     1     -18.536  10.418   4.005  1.00  0.00     0.008 A 
ATOM     27  C   UNL     1     -19.131  12.991   3.202  1.00  0.00     0.127 A 
ATOM     28  C   UNL     1     -19.815  10.776   3.632  1.00  0.00     0.004 A 
ATOM     29  C   UNL     1     -20.136  12.040   3.233  1.00  0.00     0.047 A 
BRANCH  10  30
ATOM     30  N   UNL     1     -10.592  11.662   3.600  1.00  0.00    -0.299 NA
ATOM     31  C   UNL     1     -10.229  10.287   3.607  1.00  0.00     0.105 C 
ATOM     32  C   UNL     1      -9.505  12.557   3.391  1.00  0.00     0.105 C 
ENDBRANCH  10  30
BRANCH  11  33
ATOM     33  O   UNL     1      -9.553  12.694   6.060  1.00  0.00    -0.510 OA
ATOM     34  H   UNL     1      -9.411  12.583   7.051  1.00  0.00     0.293 HD
ENDBRANCH  11  33
BRANCH  13  35
ATOM     35  O   UNL     1     -12.311  14.020   2.678  1.00  0.00    -0.374 OA
ATOM     36  H   UNL     1     -11.347  13.938   2.975  1.00  0.00     0.212 HD
ENDBRANCH  13  35
BRANCH  16  37
ATOM     37  O   UNL     1     -14.769  15.428   3.396  1.00  0.00    -0.508 OA
ATOM     38  H   UNL     1     -15.469  15.812   4.044  1.00  0.00     0.293 HD
ENDBRANCH  16  37
BRANCH  20  39
ATOM     39  O   UNL     1     -16.215  10.913   5.900  1.00  0.00    -0.385 OA
ATOM     40  H   UNL     1     -15.458  11.422   6.248  1.00  0.00     0.211 HD
ENDBRANCH  20  39
BRANCH  27  41
ATOM     41  O   UNL     1     -19.473  14.238   2.796  1.00  0.00    -0.507 OA
ATOM     42  H   UNL     1     -19.133  14.986   2.320  1.00  0.00     0.293 HD
ENDBRANCH  27  41
ENDBRANCH   6   9
ENDBRANCH   4   5
ENDBRANCH   2   4
ENDBRANCH   1   2
BRANCH   1  43
ATOM     43  C   UNL     1      -6.190  14.791   8.952  1.00  0.00     0.031 C 
BRANCH  43  44
ATOM     44  C   UNL     1      -5.442  13.504   8.908  1.00  0.00     0.004 C 
BRANCH  44  45
ATOM     45  C   UNL     1      -6.122  12.233   9.234  1.00  0.00     0.015 C 
BRANCH  45  46
ATOM     46  C   UNL     1      -6.296  11.148   8.271  1.00  0.00     0.077 C 
BRANCH  46  47
ATOM     47  N   UNL     1      -7.167  11.301   7.168  1.00  0.00    -0.330 NA
ATOM     48  H   UNL     1      -7.672  10.502   6.805  1.00  0.00     0.118 HD
ATOM     49  H   UNL     1      -7.701  12.208   7.117  1.00  0.00     0.118 HD
ENDBRANCH  46  47
ENDBRANCH  45  46
ENDBRANCH  44  45
ENDBRANCH  43  44
ENDBRANCH   1  43
BRANCH   1  50
ATOM     50  C   UNL     1      -6.614  14.800   6.518  1.00  0.00     0.320 C 
ATOM     51  O   UNL     1      -5.658  15.518   6.153  1.00  0.00    -0.251 OA
BRANCH  50  52
ATOM     52  O   UNL     1      -7.088  13.879   5.632  1.00  0.00    -0.480 OA
ATOM     53  H   UNL     1      -6.531  13.590   4.816  1.00  0.00     0.296 HD
ENDBRANCH  50  52
ENDBRANCH   1  50
TORSDOF 17
ENDMDL
MODEL 3
REMARK VINA RESULT:    -7.662      2.653      4.460
REMARK INTER + INTRA:         -14.625
REMARK INTER:                 -13.760
REMARK INTRA:                  -0.865
REMARK UNBOUND:                -0.916
REMARK SMILES CN(C)[C@H]1C(O)=C(C(=O)NCNC(CCCCN)C(=O)O)C(=O)[C@]2(O)C(O)=C3C(=O)c4c(O)cccc4[C@](C)(O)[C@@H]3C[C@H]12
REMARK SMILES IDX 13 1 12 2 11 4 10 5 8 6 9 7 7 9 4 10 5 11 43 12 24 13 42 14
REMARK SMILES IDX 22 15 26 16 41 17 23 18 28 19 38 20 29 21 37 22 39 23 30 24
REMARK SMILES IDX 31 25 36 26 32 27 35 28 34 29 2 30 1 31 3 32 6 33 25 35
REMARK SMILES IDX 27 37 40 39 33 41 14 43 15 44 16 45 17 46 18 47 19 50 20 51
REMARK SMILES IDX 21 52
REMARK H PARENT 12 3 10 8 6 34 25 36 27 38 40 40 33 42 18 48 18 49 21 53
REMARK Flexibility Score: inf
ROOT
ATOM      1  C   UNL     1      -4.764  13.129   7.322  1.00  0.00     0.166 C 
ENDROOT
BRANCH   1   2
ATOM      2  N   UNL     1      -5.787  14.036   7.504  1.00  0.00    -0.287 NA
ATOM      3  H   UNL     1      -5.509  14.751   8.259  1.00  0.00     0.125 HD
BRANCH   2   4
ATOM      4  C   UNL     1      -6.420  14.785   6.451  1.00  0.00     0.202 C 
BRANCH   4   5
ATOM      5  N   UNL     1      -7.478  13.893   5.957  1.00  0.00    -0.339 N 
ATOM      6  C   UNL     1      -8.463  13.259   6.680  1.00  0.00     0.259 C 
ATOM      7  O   UNL     1      -8.449  13.346   7.929  1.00  0.00    -0.269 OA
ATOM      8  H   UNL     1      -7.431  13.684   4.909  1.00  0.00     0.165 HD
BRANCH   6   9
ATOM      9  C   UNL     1      -9.522  12.491   5.949  1.00  0.00     0.125 C 
ATOM     10  C   UNL     1     -10.615  10.381   5.232  1.00  0.00     0.130 C 
ATOM     11  C   UNL     1      -9.592  11.197   5.942  1.00  0.00     0.126 C 
ATOM     12  C   UNL     1     -11.737  11.102   4.668  1.00  0.00     0.062 C 
ATOM     13  C   UNL     1     -11.468  12.540   4.289  1.00  0.00     0.190 C 
ATOM     14  C   UNL     1     -13.058  11.018   5.418  1.00  0.00     0.021 C 
ATOM     15  C   UNL     1     -10.568  13.243   5.232  1.00  0.00     0.211 C 
ATOM     16  C   UNL     1     -12.677  13.274   3.970  1.00  0.00     0.140 C 
ATOM     17  C   UNL     1     -14.089  11.322   4.305  1.00  0.00     0.063 C 
ATOM     18  O   UNL     1     -10.677  14.460   5.431  1.00  0.00    -0.290 OA
ATOM     19  C   UNL     1     -13.906  12.728   3.967  1.00  0.00     0.048 C 
ATOM     20  C   UNL     1     -15.443  10.890   4.732  1.00  0.00     0.095 C 
ATOM     21  C   UNL     1     -15.052  13.561   3.617  1.00  0.00     0.197 C 
ATOM     22  C   UNL     1     -16.521  11.692   4.179  1.00  0.00    -0.001 A 
ATOM     23  C   UNL     1     -15.577   9.431   4.374  1.00  0.00     0.048 C 
ATOM     24  O   UNL     1     -14.888  14.746   3.224  1.00  0.00    -0.289 OA
ATOM     25  C   UNL     1     -16.392  12.998   3.727  1.00  0.00     0.070 A 
ATOM     26  C   UNL     1     -17.811  11.151   4.163  1.00  0.00     0.008 A 
ATOM     27  C   UNL     1     -17.490  13.747   3.280  1.00  0.00     0.127 A 
ATOM     28  C   UNL     1     -18.884  11.896   3.719  1.00  0.00     0.004 A 
ATOM     29  C   UNL     1     -18.753  13.180   3.279  1.00  0.00     0.047 A 
BRANCH  10  30
ATOM     30  N   UNL     1      -9.892   9.700   4.138  1.00  0.00    -0.299 NA
ATOM     31  C   UNL     1     -10.745   9.275   3.082  1.00  0.00     0.105 C 
ATOM     32  C   UNL     1      -8.991   8.700   4.604  1.00  0.00     0.105 C 
ENDBRANCH  10  30
BRANCH  11  33
ATOM     33  O   UNL     1      -8.674  10.420   6.626  1.00  0.00    -0.510 OA
ATOM     34  H   UNL     1      -8.885   9.666   7.261  1.00  0.00     0.293 HD
ENDBRANCH  11  33
BRANCH  13  35
ATOM     35  O   UNL     1     -10.697  12.458   3.083  1.00  0.00    -0.374 OA
ATOM     36  H   UNL     1     -10.944  13.330   2.631  1.00  0.00     0.212 HD
ENDBRANCH  13  35
BRANCH  16  37
ATOM     37  O   UNL     1     -12.580  14.620   3.648  1.00  0.00    -0.508 OA
ATOM     38  H   UNL     1     -12.749  14.824   2.654  1.00  0.00     0.293 HD
ENDBRANCH  16  37
BRANCH  20  39
ATOM     39  O   UNL     1     -15.537  10.923   6.163  1.00  0.00    -0.385 OA
ATOM     40  H   UNL     1     -16.477  10.925   6.426  1.00  0.00     0.211 HD
ENDBRANCH  20  39
BRANCH  27  41
ATOM     41  O   UNL     1     -17.383  15.022   2.833  1.00  0.00    -0.507 OA
ATOM     42  H   UNL     1     -17.898  15.806   2.690  1.00  0.00     0.293 HD
ENDBRANCH  27  41
ENDBRANCH   6   9
ENDBRANCH   4   5
ENDBRANCH   2   4
ENDBRANCH   1   2
BRANCH   1  43
ATOM     43  C   UNL     1      -4.715  11.882   8.062  1.00  0.00     0.031 C 
BRANCH  43  44
ATOM     44  C   UNL     1      -5.335  10.697   7.407  1.00  0.00     0.004 C 
BRANCH  44  45
ATOM     45  C   UNL     1      -4.519   9.510   7.080  1.00  0.00     0.015 C 
BRANCH  45  46
ATOM     46  C   UNL     1      -4.079   9.188   5.724  1.00  0.00     0.077 C 
BRANCH  46  47
ATOM     47  N   UNL     1      -2.739   9.412   5.333  1.00  0.00    -0.330 NA
ATOM     48  H   UNL     1      -2.226   8.690   4.841  1.00  0.00     0.118 HD
ATOM     49  H   UNL     1      -2.498  10.392   5.031  1.00  0.00     0.118 HD
ENDBRANCH  46  47
ENDBRANCH  45  46
ENDBRANCH  44  45
ENDBRANCH  43  44
ENDBRANCH   1  43
BRANCH   1  50
ATOM     50  C   UNL     1      -3.436  13.902   7.440  1.00  0.00     0.320 C 
ATOM     51  O   UNL     1      -3.404  14.969   8.090  1.00  0.00    -0.251 OA
BRANCH  50  52
ATOM     52  O   UNL     1      -2.276  13.477   6.863  1.00  0.00    -0.480 OA
ATOM     53  H   UNL     1      -1.428  13.324   7.426  1.00  0.00     0.296 HD
ENDBRANCH  50  52
ENDBRANCH   1  50
TORSDOF 17
ENDMDL
MODEL 4
REMARK VINA RESULT:    -7.521      2.575      6.979
REMARK INTER + INTRA:         -14.373
REMARK INTER:                 -13.207
REMARK INTRA:                  -1.166
REMARK UNBOUND:                -0.916
REMARK SMILES CN(C)[C@H]1C(O)=C(C(=O)NCNC(CCCCN)C(=O)O)C(=O)[C@]2(O)C(O)=C3C(=O)c4c(O)cccc4[C@](C)(O)[C@@H]3C[C@H]12
REMARK SMILES IDX 13 1 12 2 11 4 10 5 8 6 9 7 7 9 4 10 5 11 43 12 24 13 42 14
REMARK SMILES IDX 22 15 26 16 41 17 23 18 28 19 38 20 29 21 37 22 39 23 30 24
REMARK SMILES IDX 31 25 36 26 32 27 35 28 34 29 2 30 1 31 3 32 6 33 25 35
REMARK SMILES IDX 27 37 40 39 33 41 14 43 15 44 16 45 17 46 18 47 19 50 20 51
REMARK SMILES IDX 21 52
REMARK H PARENT 12 3 10 8 6 34 25 36 27 38 40 40 33 42 18 48 18 49 21 53
REMARK Flexibility Score: inf
ROOT
ATOM      1  C   UNL     1      -3.465  12.147   7.419  1.00  0.00     0.166 C 
ENDROOT
BRANCH   1   2
ATOM      2  N   UNL     1      -4.698  12.591   7.847  1.00  0.00    -0.287 NA
ATOM      3  H   UNL     1      -4.683  12.733   8.914  1.00  0.00     0.125 HD
BRANCH   2   4
ATOM      4  C   UNL     1      -5.403  13.719   7.298  1.00  0.00     0.202 C 
BRANCH   4   5
ATOM      5  N   UNL     1      -6.669  13.153   6.811  1.00  0.00    -0.339 N 
ATOM      6  C   UNL     1      -7.849  13.810   6.544  1.00  0.00     0.259 C 
ATOM      7  O   UNL     1      -7.938  15.028   6.816  1.00  0.00    -0.269 OA
ATOM      8  H   UNL     1      -6.668  12.088   6.703  1.00  0.00     0.165 HD
BRANCH   6   9
ATOM      9  C   UNL     1      -8.984  13.048   5.929  1.00  0.00     0.125 C 
ATOM     10  C   UNL     1     -10.605  12.601   4.105  1.00  0.00     0.130 C 
ATOM     11  C   UNL     1      -9.479  13.317   4.763  1.00  0.00     0.126 C 
ATOM     12  C   UNL     1     -11.051  11.379   4.740  1.00  0.00     0.062 C 
ATOM     13  C   UNL     1     -10.821  11.293   6.232  1.00  0.00     0.190 C 
ATOM     14  C   UNL     1     -10.627  10.069   4.090  1.00  0.00     0.021 C 
ATOM     15  C   UNL     1      -9.544  11.902   6.670  1.00  0.00     0.211 C 
ATOM     16  C   UNL     1     -11.053   9.964   6.763  1.00  0.00     0.140 C 
ATOM     17  C   UNL     1     -11.712   9.086   4.591  1.00  0.00     0.063 C 
ATOM     18  O   UNL     1      -8.933  11.465   7.654  1.00  0.00    -0.290 OA
ATOM     19  C   UNL     1     -11.471   8.924   6.020  1.00  0.00     0.048 C 
ATOM     20  C   UNL     1     -11.718   7.862   3.753  1.00  0.00     0.095 C 
ATOM     21  C   UNL     1     -11.685   7.632   6.665  1.00  0.00     0.197 C 
ATOM     22  C   UNL     1     -12.115   6.659   4.466  1.00  0.00    -0.001 A 
ATOM     23  C   UNL     1     -12.605   8.140   2.567  1.00  0.00     0.048 C 
ATOM     24  O   UNL     1     -11.578   7.513   7.914  1.00  0.00    -0.289 OA
ATOM     25  C   UNL     1     -12.024   6.480   5.839  1.00  0.00     0.070 A 
ATOM     26  C   UNL     1     -12.554   5.560   3.720  1.00  0.00     0.008 A 
ATOM     27  C   UNL     1     -12.349   5.264   6.457  1.00  0.00     0.127 A 
ATOM     28  C   UNL     1     -12.872   4.369   4.340  1.00  0.00     0.004 A 
ATOM     29  C   UNL     1     -12.779   4.196   5.689  1.00  0.00     0.047 A 
BRANCH  10  30
ATOM     30  N   UNL     1     -11.730  13.560   4.085  1.00  0.00    -0.299 NA
ATOM     31  C   UNL     1     -11.654  14.535   5.117  1.00  0.00     0.105 C 
ATOM     32  C   UNL     1     -12.999  12.926   3.966  1.00  0.00     0.105 C 
ENDBRANCH  10  30
BRANCH  11  33
ATOM     33  O   UNL     1      -8.980  14.349   3.987  1.00  0.00    -0.510 OA
ATOM     34  H   UNL     1      -9.199  15.327   4.083  1.00  0.00     0.293 HD
ENDBRANCH  11  33
BRANCH  13  35
ATOM     35  O   UNL     1     -11.818  12.152   6.801  1.00  0.00    -0.374 OA
ATOM     36  H   UNL     1     -12.285  12.491   5.969  1.00  0.00     0.212 HD
ENDBRANCH  13  35
BRANCH  16  37
ATOM     37  O   UNL     1     -10.835   9.734   8.113  1.00  0.00    -0.508 OA
ATOM     38  H   UNL     1     -10.611  10.581   8.650  1.00  0.00     0.293 HD
ENDBRANCH  16  37
BRANCH  20  39
ATOM     39  O   UNL     1     -10.415   7.650   3.191  1.00  0.00    -0.385 OA
ATOM     40  H   UNL     1      -9.756   7.599   3.909  1.00  0.00     0.211 HD
ENDBRANCH  20  39
BRANCH  27  41
ATOM     41  O   UNL     1     -12.269   5.071   7.796  1.00  0.00    -0.507 OA
ATOM     42  H   UNL     1     -12.014   5.509   8.598  1.00  0.00     0.293 HD
ENDBRANCH  27  41
ENDBRANCH   6   9
ENDBRANCH   4   5
ENDBRANCH   2   4
ENDBRANCH   1   2
BRANCH   1  43
ATOM     43  C   UNL     1      -3.075  10.755   7.544  1.00  0.00     0.031 C 
BRANCH  43  44
ATOM     44  C   UNL     1      -3.126   9.937   6.300  1.00  0.00     0.004 C 
BRANCH  44  45
ATOM     45  C   UNL     1      -4.342   9.168   5.960  1.00  0.00     0.015 C 
BRANCH  45  46
ATOM     46  C   UNL     1      -5.478   9.023   6.867  1.00  0.00     0.077 C 
BRANCH  46  47
ATOM     47  N   UNL     1      -6.483  10.016   6.922  1.00  0.00    -0.330 NA
ATOM     48  H   UNL     1      -6.765  10.500   6.078  1.00  0.00     0.118 HD
ATOM     49  H   UNL     1      -7.267   9.848   7.605  1.00  0.00     0.118 HD
ENDBRANCH  46  47
ENDBRANCH  45  46
ENDBRANCH  44  45
ENDBRANCH  43  44
ENDBRANCH   1  43
BRANCH   1  50
ATOM     50  C   UNL     1      -2.402  13.083   8.025  1.00  0.00     0.320 C 
ATOM     51  O   UNL     1      -1.921  12.817   9.148  1.00  0.00    -0.251 OA
BRANCH  50  52
ATOM     52  O   UNL     1      -1.950  14.202   7.392  1.00  0.00    -0.480 OA
ATOM     53  H   UNL     1      -2.205  14.399   6.415  1.00  0.00     0.296 HD
ENDBRANCH  50  52
ENDBRANCH   1  50
TORSDOF 17
ENDMDL
MODEL 5
REMARK VINA RESULT:    -7.248      2.758      4.367
REMARK INTER + INTRA:         -13.884
REMARK INTER:                 -12.720
REMARK INTRA:                  -1.164
REMARK UNBOUND:                -0.916
REMARK SMILES CN(C)[C@H]1C(O)=C(C(=O)NCNC(CCCCN)C(=O)O)C(=O)[C@]2(O)C(O)=C3C(=O)c4c(O)cccc4[C@](C)(O)[C@@H]3C[C@H]12
REMARK SMILES IDX 13 1 12 2 11 4 10 5 8 6 9 7 7 9 4 10 5 11 43 12 24 13 42 14
REMARK SMILES IDX 22 15 26 16 41 17 23 18 28 19 38 20 29 21 37 22 39 23 30 24
REMARK SMILES IDX 31 25 36 26 32 27 35 28 34 29 2 30 1 31 3 32 6 33 25 35
REMARK SMILES IDX 27 37 40 39 33 41 14 43 15 44 16 45 17 46 18 47 19 50 20 51
REMARK SMILES IDX 21 52
REMARK H PARENT 12 3 10 8 6 34 25 36 27 38 40 40 33 42 18 48 18 49 21 53
REMARK Flexibility Score: inf
ROOT
ATOM      1  C   UNL     1      -4.726  13.261   7.573  1.00  0.00     0.166 C 
ENDROOT
BRANCH   1   2
ATOM      2  N   UNL     1      -5.325  13.952   6.542  1.00  0.00    -0.287 NA
ATOM      3  H   UNL     1      -5.460  13.299   5.697  1.00  0.00     0.125 HD
BRANCH   2   4
ATOM      4  C   UNL     1      -6.536  14.720   6.659  1.00  0.00     0.202 C 
BRANCH   4   5
ATOM      5  N   UNL     1      -7.577  13.843   6.104  1.00  0.00    -0.339 N 
ATOM      6  C   UNL     1      -8.487  13.067   6.784  1.00  0.00     0.259 C 
ATOM      7  O   UNL     1      -8.407  12.992   8.031  1.00  0.00    -0.269 OA
ATOM      8  H   UNL     1      -7.579  13.775   5.036  1.00  0.00     0.165 HD
BRANCH   6   9
ATOM      9  C   UNL     1      -9.549  12.344   6.012  1.00  0.00     0.125 C 
ATOM     10  C   UNL     1     -10.674  10.280   5.218  1.00  0.00     0.130 C 
ATOM     11  C   UNL     1      -9.649  11.052   5.969  1.00  0.00     0.126 C 
ATOM     12  C   UNL     1     -11.767  11.042   4.649  1.00  0.00     0.062 C 
ATOM     13  C   UNL     1     -11.457  12.482   4.313  1.00  0.00     0.190 C 
ATOM     14  C   UNL     1     -13.106  10.970   5.369  1.00  0.00     0.021 C 
ATOM     15  C   UNL     1     -10.561  13.139   5.293  1.00  0.00     0.211 C 
ATOM     16  C   UNL     1     -12.641  13.253   3.989  1.00  0.00     0.140 C 
ATOM     17  C   UNL     1     -14.105  11.327   4.243  1.00  0.00     0.063 C 
ATOM     18  O   UNL     1     -10.646  14.353   5.522  1.00  0.00    -0.290 OA
ATOM     19  C   UNL     1     -13.882  12.736   3.946  1.00  0.00     0.048 C 
ATOM     20  C   UNL     1     -15.478  10.917   4.630  1.00  0.00     0.095 C 
ATOM     21  C   UNL     1     -15.001  13.606   3.594  1.00  0.00     0.197 C 
ATOM     22  C   UNL     1     -16.525  11.758   4.076  1.00  0.00    -0.001 A 
ATOM     23  C   UNL     1     -15.638   9.472   4.231  1.00  0.00     0.048 C 
ATOM     24  O   UNL     1     -14.801  14.796   3.236  1.00  0.00    -0.289 OA
ATOM     25  C   UNL     1     -16.356  13.072   3.662  1.00  0.00     0.070 A 
ATOM     26  C   UNL     1     -17.826  11.249   4.020  1.00  0.00     0.008 A 
ATOM     27  C   UNL     1     -17.426  13.858   3.212  1.00  0.00     0.127 A 
ATOM     28  C   UNL     1     -18.872  12.031   3.573  1.00  0.00     0.004 A 
ATOM     29  C   UNL     1     -18.701  13.322   3.170  1.00  0.00     0.047 A 
BRANCH  10  30
ATOM     30  N   UNL     1      -9.945   9.610   4.121  1.00  0.00    -0.299 NA
ATOM     31  C   UNL     1     -10.791   9.193   3.057  1.00  0.00     0.105 C 
ATOM     32  C   UNL     1      -9.044   8.608   4.583  1.00  0.00     0.105 C 
ENDBRANCH  10  30
BRANCH  11  33
ATOM     33  O   UNL     1      -8.763  10.236   6.652  1.00  0.00    -0.510 OA
ATOM     34  H   UNL     1      -8.009  10.540   7.246  1.00  0.00     0.293 HD
ENDBRANCH  11  33
BRANCH  13  35
ATOM     35  O   UNL     1     -10.662  12.413   3.122  1.00  0.00    -0.374 OA
ATOM     36  H   UNL     1     -10.598  13.391   2.871  1.00  0.00     0.212 HD
ENDBRANCH  13  35
BRANCH  16  37
ATOM     37  O   UNL     1     -12.506  14.604   3.704  1.00  0.00    -0.508 OA
ATOM     38  H   UNL     1     -13.060  15.217   4.316  1.00  0.00     0.293 HD
ENDBRANCH  16  37
BRANCH  20  39
ATOM     39  O   UNL     1     -15.602  10.915   6.060  1.00  0.00    -0.385 OA
ATOM     40  H   UNL     1     -15.227  10.088   6.416  1.00  0.00     0.211 HD
ENDBRANCH  20  39
BRANCH  27  41
ATOM     41  O   UNL     1     -17.280  15.141   2.800  1.00  0.00    -0.507 OA
ATOM     42  H   UNL     1     -17.127  16.017   3.132  1.00  0.00     0.293 HD
ENDBRANCH  27  41
ENDBRANCH   6   9
ENDBRANCH   4   5
ENDBRANCH   2   4
ENDBRANCH   1   2
BRANCH   1  43
ATOM     43  C   UNL     1      -3.392  13.594   8.037  1.00  0.00     0.031 C 
BRANCH  43  44
ATOM     44  C   UNL     1      -3.158  13.510   9.506  1.00  0.00     0.004 C 
BRANCH  44  45
ATOM     45  C   UNL     1      -2.483  14.612  10.220  1.00  0.00     0.015 C 
BRANCH  45  46
ATOM     46  C   UNL     1      -1.127  15.058   9.908  1.00  0.00     0.077 C 
BRANCH  46  47
ATOM     47  N   UNL     1      -0.071  14.124   9.807  1.00  0.00    -0.330 NA
ATOM     48  H   UNL     1      -0.052  13.460   9.043  1.00  0.00     0.118 HD
ATOM     49  H   UNL     1       0.881  14.462  10.108  1.00  0.00     0.118 HD
ENDBRANCH  46  47
ENDBRANCH  45  46
ENDBRANCH  44  45
ENDBRANCH  43  44
ENDBRANCH   1  43
BRANCH   1  50
ATOM     50  C   UNL     1      -4.848  11.759   7.255  1.00  0.00     0.320 C 
ATOM     51  O   UNL     1      -3.812  11.088   7.058  1.00  0.00    -0.251 OA
BRANCH  50  52
ATOM     52  O   UNL     1      -6.046  11.112   7.175  1.00  0.00    -0.480 OA
ATOM     53  H   UNL     1      -6.244  10.287   7.758  1.00  0.00     0.296 HD
ENDBRANCH  50  52
ENDBRANCH   1  50
TORSDOF 17
ENDMDL
