MODEL 1
REMARK VINA RESULT:    -7.345      0.000      0.000
REMARK INTER + INTRA:          -8.105
REMARK INTER:                  -7.989
REMARK INTRA:                  -0.116
REMARK UNBOUND:                -0.116
REMARK SMILES CC(=O)[C@H]1CC[C@H]2[C@@H]3CC[C@H]4C[C@H](O)CC[C@]4(C)[C@H]3C(=O)C[C@]12C
REMARK SMILES IDX 4 1 5 2 6 3 7 4 8 5 9 6 10 7 11 8 12 9 13 10 15 11 16 12
REMARK SMILES IDX 17 13 18 14 19 15 20 16 21 17 22 18 23 19 24 20 2 21 1 22
REMARK SMILES IDX 3 23 14 24
REMARK H PARENT 14 25
REMARK Flexibility Score: inf
ROOT
ATOM      1  C   UNL     1     -17.294  13.807   3.013  1.00  0.00     0.062 C 
ATOM      2  C   UNL     1     -16.427  14.982   3.450  1.00  0.00     0.012 C 
ATOM      3  C   UNL     1     -15.094  14.366   3.897  1.00  0.00     0.005 C 
ATOM      4  C   UNL     1     -15.254  12.915   3.625  1.00  0.00    -0.000 C 
ATOM      5  C   UNL     1     -14.374  12.000   4.383  1.00  0.00     0.004 C 
ATOM      6  C   UNL     1     -12.945  12.257   3.966  1.00  0.00     0.005 C 
ATOM      7  C   UNL     1     -11.981  11.218   4.366  1.00  0.00     0.004 C 
ATOM      8  C   UNL     1     -12.468   9.823   4.426  1.00  0.00    -0.002 C 
ATOM      9  C   UNL     1     -11.572   9.017   5.306  1.00  0.00     0.036 C 
ATOM     10  C   UNL     1     -11.979   7.562   5.343  1.00  0.00     0.114 C 
ATOM     11  C   UNL     1     -13.422   7.366   5.641  1.00  0.00     0.032 C 
ATOM     12  C   UNL     1     -14.372   8.296   4.976  1.00  0.00     0.010 C 
ATOM     13  C   UNL     1     -13.928   9.705   4.891  1.00  0.00    -0.020 C 
ATOM     14  C   UNL     1     -13.917  10.276   6.317  1.00  0.00     0.012 C 
ATOM     15  C   UNL     1     -14.697  10.577   3.958  1.00  0.00     0.066 C 
ATOM     16  C   UNL     1     -16.105  10.303   3.773  1.00  0.00     0.137 C 
ATOM     17  O   UNL     1     -16.532   9.181   3.925  1.00  0.00    -0.299 OA
ATOM     18  C   UNL     1     -17.089  11.343   3.398  1.00  0.00     0.083 C 
ATOM     19  C   UNL     1     -16.737  12.705   3.885  1.00  0.00    -0.013 C 
ATOM     20  C   UNL     1     -17.135  12.881   5.310  1.00  0.00     0.013 C 
ENDROOT
BRANCH   1  21
ATOM     21  C   UNL     1     -18.723  14.042   3.167  1.00  0.00     0.133 C 
ATOM     22  C   UNL     1     -19.144  15.324   3.826  1.00  0.00     0.088 C 
ATOM     23  O   UNL     1     -19.598  13.304   2.815  1.00  0.00    -0.300 OA
ENDBRANCH   1  21
BRANCH  10  24
ATOM     24  O   UNL     1     -11.634   6.943   4.137  1.00  0.00    -0.393 OA
ATOM     25  H   UNL     1     -12.222   6.171   3.935  1.00  0.00     0.210 HD
ENDBRANCH  10  24
TORSDOF 2
ENDMDL
MODEL 2
REMARK VINA RESULT:    -7.153     23.242     25.635
REMARK INTER + INTRA:          -7.896
REMARK INTER:                  -7.930
REMARK INTRA:                   0.034
REMARK UNBOUND:                -0.116
REMARK SMILES CC(=O)[C@H]1CC[C@H]2[C@@H]3CC[C@H]4C[C@H](O)CC[C@]4(C)[C@H]3C(=O)C[C@]12C
REMARK SMILES IDX 4 1 5 2 6 3 7 4 8 5 9 6 10 7 11 8 12 9 13 10 15 11 16 12
REMARK SMILES IDX 17 13 18 14 19 15 20 16 21 17 22 18 23 19 24 20 2 21 1 22
REMARK SMILES IDX 3 23 14 24
REMARK H PARENT 14 25
REMARK Flexibility Score: inf
ROOT
ATOM      1  C   UNL     1       1.688   0.315 -10.194  1.00  0.00     0.062 C 
ATOM      2  C   UNL     1       2.341  -0.206  -8.919  1.00  0.00     0.012 C 
ATOM      3  C   UNL     1       1.958  -1.690  -8.838  1.00  0.00     0.005 C 
ATOM      4  C   UNL     1       1.189  -1.936 -10.083  1.00  0.00    -0.000 C 
ATOM      5  C   UNL     1       0.274  -3.099 -10.075  1.00  0.00     0.004 C 
ATOM      6  C   UNL     1       1.102  -4.355  -9.947  1.00  0.00     0.005 C 
ATOM      7  C   UNL     1       0.390  -5.607 -10.259  1.00  0.00     0.004 C 
ATOM      8  C   UNL     1      -0.667  -5.550 -11.290  1.00  0.00    -0.002 C 
ATOM      9  C   UNL     1      -1.596  -6.706 -11.120  1.00  0.00     0.036 C 
ATOM     10  C   UNL     1      -2.656  -6.742 -12.197  1.00  0.00     0.114 C 
ATOM     11  C   UNL     1      -3.361  -5.444 -12.365  1.00  0.00     0.032 C 
ATOM     12  C   UNL     1      -2.523  -4.217 -12.310  1.00  0.00     0.010 C 
ATOM     13  C   UNL     1      -1.449  -4.227 -11.292  1.00  0.00    -0.020 C 
ATOM     14  C   UNL     1      -2.117  -4.182  -9.910  1.00  0.00     0.012 C 
ATOM     15  C   UNL     1      -0.408  -3.169 -11.432  1.00  0.00     0.066 C 
ATOM     16  C   UNL     1      -0.804  -1.891 -11.979  1.00  0.00     0.137 C 
ATOM     17  O   UNL     1      -1.739  -1.820 -12.745  1.00  0.00    -0.299 OA
ATOM     18  C   UNL     1      -0.115  -0.622 -11.654  1.00  0.00     0.083 C 
ATOM     19  C   UNL     1       0.491  -0.602 -10.294  1.00  0.00    -0.013 C 
ATOM     20  C   UNL     1      -0.532  -0.281  -9.259  1.00  0.00     0.013 C 
ENDROOT
BRANCH   1  21
ATOM     21  C   UNL     1       1.366   1.735 -10.151  1.00  0.00     0.133 C 
ATOM     22  C   UNL     1       1.398   2.488 -11.450  1.00  0.00     0.088 C 
ATOM     23  O   UNL     1       1.076   2.361  -9.172  1.00  0.00    -0.300 OA
ENDBRANCH   1  21
BRANCH  10  24
ATOM     24  O   UNL     1      -2.088  -7.157 -13.406  1.00  0.00    -0.393 OA
ATOM     25  H   UNL     1      -1.689  -8.062 -13.336  1.00  0.00     0.210 HD
ENDBRANCH  10  24
TORSDOF 2
ENDMDL
MODEL 3
REMARK VINA RESULT:    -7.090      2.750      3.680
REMARK INTER + INTRA:          -7.828
REMARK INTER:                  -7.719
REMARK INTRA:                  -0.108
REMARK UNBOUND:                -0.116
REMARK SMILES CC(=O)[C@H]1CC[C@H]2[C@@H]3CC[C@H]4C[C@H](O)CC[C@]4(C)[C@H]3C(=O)C[C@]12C
REMARK SMILES IDX 4 1 5 2 6 3 7 4 8 5 9 6 10 7 11 8 12 9 13 10 15 11 16 12
REMARK SMILES IDX 17 13 18 14 19 15 20 16 21 17 22 18 23 19 24 20 2 21 1 22
REMARK SMILES IDX 3 23 14 24
REMARK H PARENT 14 25
REMARK Flexibility Score: inf
ROOT
ATOM      1  C   UNL     1     -17.935  14.873   3.532  1.00  0.00     0.062 C 
ATOM      2  C   UNL     1     -18.050  16.045   4.500  1.00  0.00     0.012 C 
ATOM      3  C   UNL     1     -16.628  16.288   5.022  1.00  0.00     0.005 C 
ATOM      4  C   UNL     1     -15.795  15.308   4.281  1.00  0.00    -0.000 C 
ATOM      5  C   UNL     1     -14.498  14.945   4.894  1.00  0.00     0.004 C 
ATOM      6  C   UNL     1     -13.620  16.173   4.915  1.00  0.00     0.005 C 
ATOM      7  C   UNL     1     -12.194  15.916   5.178  1.00  0.00     0.004 C 
ATOM      8  C   UNL     1     -11.629  14.642   4.686  1.00  0.00    -0.002 C 
ATOM      9  C   UNL     1     -10.388  14.316   5.449  1.00  0.00     0.036 C 
ATOM     10  C   UNL     1      -9.724  13.060   4.935  1.00  0.00     0.114 C 
ATOM     11  C   UNL     1     -10.659  11.910   4.821  1.00  0.00     0.032 C 
ATOM     12  C   UNL     1     -12.013  12.203   4.282  1.00  0.00     0.010 C 
ATOM     13  C   UNL     1     -12.621  13.470   4.746  1.00  0.00    -0.020 C 
ATOM     14  C   UNL     1     -12.933  13.316   6.242  1.00  0.00     0.012 C 
ATOM     15  C   UNL     1     -13.813  13.940   3.983  1.00  0.00     0.066 C 
ATOM     16  C   UNL     1     -14.689  12.945   3.408  1.00  0.00     0.137 C 
ATOM     17  O   UNL     1     -14.256  11.857   3.099  1.00  0.00    -0.299 OA
ATOM     18  C   UNL     1     -16.130  13.179   3.163  1.00  0.00     0.083 C 
ATOM     19  C   UNL     1     -16.752  14.137   4.118  1.00  0.00    -0.013 C 
ATOM     20  C   UNL     1     -17.107  13.460   5.397  1.00  0.00     0.013 C 
ENDROOT
BRANCH   1  21
ATOM     21  C   UNL     1     -19.152  14.079   3.423  1.00  0.00     0.133 C 
ATOM     22  C   UNL     1     -20.345  14.535   4.213  1.00  0.00     0.088 C 
ATOM     23  O   UNL     1     -19.289  13.092   2.759  1.00  0.00    -0.300 OA
ENDBRANCH   1  21
BRANCH  10  24
ATOM     24  O   UNL     1      -9.105  13.319   3.708  1.00  0.00    -0.393 OA
ATOM     25  H   UNL     1      -9.751  13.639   3.028  1.00  0.00     0.210 HD
ENDBRANCH  10  24
TORSDOF 2
ENDMDL
MODEL 4
REMARK VINA RESULT:    -7.062      2.637      6.109
REMARK INTER + INTRA:          -7.797
REMARK INTER:                  -7.687
REMARK INTRA:                  -0.110
REMARK UNBOUND:                -0.116
REMARK SMILES CC(=O)[C@H]1CC[C@H]2[C@@H]3CC[C@H]4C[C@H](O)CC[C@]4(C)[C@H]3C(=O)C[C@]12C
REMARK SMILES IDX 4 1 5 2 6 3 7 4 8 5 9 6 10 7 11 8 12 9 13 10 15 11 16 12
REMARK SMILES IDX 17 13 18 14 19 15 20 16 21 17 22 18 23 19 24 20 2 21 1 22
REMARK SMILES IDX 3 23 14 24
REMARK H PARENT 14 25
REMARK Flexibility Score: inf
ROOT
ATOM      1  C   UNL     1     -11.725  13.246   4.067  1.00  0.00     0.062 C 
ATOM      2  C   UNL     1     -11.311  11.889   4.623  1.00  0.00     0.012 C 
ATOM      3  C   UNL     1     -12.589  11.038   4.621  1.00  0.00     0.005 C 
ATOM      4  C   UNL     1     -13.614  11.920   4.009  1.00  0.00    -0.000 C 
ATOM      5  C   UNL     1     -15.026  11.600   4.310  1.00  0.00     0.004 C 
ATOM      6  C   UNL     1     -15.349  10.254   3.705  1.00  0.00     0.005 C 
ATOM      7  C   UNL     1     -16.785   9.937   3.618  1.00  0.00     0.004 C 
ATOM      8  C   UNL     1     -17.719  11.061   3.399  1.00  0.00    -0.002 C 
ATOM      9  C   UNL     1     -19.090  10.668   3.840  1.00  0.00     0.036 C 
ATOM     10  C   UNL     1     -20.103  11.754   3.566  1.00  0.00     0.114 C 
ATOM     11  C   UNL     1     -19.684  13.086   4.078  1.00  0.00     0.032 C 
ATOM     12  C   UNL     1     -18.258  13.456   3.883  1.00  0.00     0.010 C 
ATOM     13  C   UNL     1     -17.283  12.362   4.091  1.00  0.00    -0.020 C 
ATOM     14  C   UNL     1     -17.288  12.012   5.587  1.00  0.00     0.012 C 
ATOM     15  C   UNL     1     -15.901  12.615   3.592  1.00  0.00     0.066 C 
ATOM     16  C   UNL     1     -15.404  13.973   3.621  1.00  0.00     0.137 C 
ATOM     17  O   UNL     1     -16.174  14.904   3.548  1.00  0.00    -0.299 OA
ATOM     18  C   UNL     1     -13.967  14.306   3.736  1.00  0.00     0.083 C 
ATOM     19  C   UNL     1     -13.175  13.295   4.488  1.00  0.00    -0.013 C 
ATOM     20  C   UNL     1     -13.312  13.498   5.958  1.00  0.00     0.013 C 
ENDROOT
BRANCH   1  21
ATOM     21  C   UNL     1     -10.912  14.353   4.555  1.00  0.00     0.133 C 
ATOM     22  C   UNL     1      -9.781  14.019   5.485  1.00  0.00     0.088 C 
ATOM     23  O   UNL     1     -11.062  15.509   4.281  1.00  0.00    -0.300 OA
ENDBRANCH   1  21
BRANCH  10  24
ATOM     24  O   UNL     1     -20.377  11.814   2.196  1.00  0.00    -0.393 OA
ATOM     25  H   UNL     1     -21.077  12.483   1.987  1.00  0.00     0.210 HD
ENDBRANCH  10  24
TORSDOF 2
ENDMDL
MODEL 5
REMARK VINA RESULT:    -6.951      1.824      6.740
REMARK INTER + INTRA:          -7.676
REMARK INTER:                  -7.558
REMARK INTRA:                  -0.118
REMARK UNBOUND:                -0.116
REMARK SMILES CC(=O)[C@H]1CC[C@H]2[C@@H]3CC[C@H]4C[C@H](O)CC[C@]4(C)[C@H]3C(=O)C[C@]12C
REMARK SMILES IDX 4 1 5 2 6 3 7 4 8 5 9 6 10 7 11 8 12 9 13 10 15 11 16 12
REMARK SMILES IDX 17 13 18 14 19 15 20 16 21 17 22 18 23 19 24 20 2 21 1 22
REMARK SMILES IDX 3 23 14 24
REMARK H PARENT 14 25
REMARK Flexibility Score: inf
ROOT
ATOM      1  C   UNL     1     -12.576   9.977   3.651  1.00  0.00     0.062 C 
ATOM      2  C   UNL     1     -13.023   8.664   4.284  1.00  0.00     0.012 C 
ATOM      3  C   UNL     1     -14.528   8.824   4.539  1.00  0.00     0.005 C 
ATOM      4  C   UNL     1     -14.853  10.161   3.982  1.00  0.00    -0.000 C 
ATOM      5  C   UNL     1     -16.075  10.813   4.500  1.00  0.00     0.004 C 
ATOM      6  C   UNL     1     -17.269   9.985   4.086  1.00  0.00     0.005 C 
ATOM      7  C   UNL     1     -18.572  10.658   4.225  1.00  0.00     0.004 C 
ATOM      8  C   UNL     1     -18.611  12.121   4.017  1.00  0.00    -0.002 C 
ATOM      9  C   UNL     1     -19.824  12.689   4.675  1.00  0.00     0.036 C 
ATOM     10  C   UNL     1     -19.955  14.175   4.429  1.00  0.00     0.114 C 
ATOM     11  C   UNL     1     -18.712  14.930   4.740  1.00  0.00     0.032 C 
ATOM     12  C   UNL     1     -17.430  14.306   4.319  1.00  0.00     0.010 C 
ATOM     13  C   UNL     1     -17.345  12.841   4.507  1.00  0.00    -0.020 C 
ATOM     14  C   UNL     1     -17.316  12.566   6.018  1.00  0.00     0.012 C 
ATOM     15  C   UNL     1     -16.221  12.157   3.805  1.00  0.00     0.066 C 
ATOM     16  C   UNL     1     -14.985  12.885   3.626  1.00  0.00     0.137 C 
ATOM     17  O   UNL     1     -14.994  14.094   3.561  1.00  0.00    -0.299 OA
ATOM     18  C   UNL     1     -13.665  12.225   3.514  1.00  0.00     0.083 C 
ATOM     19  C   UNL     1     -13.574  10.937   4.254  1.00  0.00    -0.013 C 
ATOM     20  C   UNL     1     -13.302  11.172   5.700  1.00  0.00     0.013 C 
ENDROOT
BRANCH   1  21
ATOM     21  C   UNL     1     -11.180  10.308   3.908  1.00  0.00     0.133 C 
ATOM     22  C   UNL     1     -10.396   9.363   4.774  1.00  0.00     0.088 C 
ATOM     23  O   UNL     1     -10.597  11.268   3.492  1.00  0.00    -0.300 OA
ENDBRANCH   1  21
BRANCH  10  24
ATOM     24  O   UNL     1     -20.356  14.402   3.108  1.00  0.00    -0.393 OA
ATOM     25  H   UNL     1     -19.796  15.090   2.665  1.00  0.00     0.210 HD
ENDBRANCH  10  24
TORSDOF 2
ENDMDL
