MODEL 1
REMARK VINA RESULT:    -5.569      0.000      0.000
REMARK INTER + INTRA:         -10.527
REMARK INTER:                  -9.150
REMARK INTRA:                  -1.377
REMARK UNBOUND:                -1.377
REMARK SMILES C/C(=C(/CCO)SSC[C@H]1CCCO1)N(C=O)Cc1cnc(C)nc1N.Cl
REMARK SMILES IDX 1 1 2 2 3 3 15 4 16 5 17 6 18 7 19 8 20 9 25 10 21 11 24 12
REMARK SMILES IDX 22 13 23 14 26 15 4 18 5 19 6 20 7 22 8 23 9 24 10 25 11 26
REMARK SMILES IDX 14 27 12 28 13 29
REMARK H PARENT 26 16 26 17 6 21
REMARK Flexibility Score: inf
ROOT
ATOM      1  C   UNL     1      -2.786  -3.187 -12.314  1.00  0.00     0.065 C 
ATOM      2  C   UNL     1      -2.640  -2.553 -10.918  1.00  0.00     0.028 C 
ATOM      3  C   UNL     1      -3.595  -1.634 -10.733  1.00  0.00     0.017 C 
ENDROOT
BRANCH   2   4
ATOM      4  N   UNL     1      -1.666  -2.990 -10.101  1.00  0.00    -0.314 N 
BRANCH   4   5
ATOM      5  C   UNL     1      -1.959  -4.400  -9.588  1.00  0.00     0.344 C 
ATOM      6  O   UNL     1      -2.826  -4.629  -8.790  1.00  0.00    -0.278 OA
ENDBRANCH   4   5
BRANCH   4   7
ATOM      7  C   UNL     1      -0.440  -2.590  -9.476  1.00  0.00     0.166 C 
BRANCH   7   8
ATOM      8  C   UNL     1       0.766  -2.611 -10.335  1.00  0.00     0.032 A 
ATOM      9  C   UNL     1       0.837  -2.090 -11.617  1.00  0.00     0.122 A 
ATOM     10  C   UNL     1       1.925  -3.353  -9.940  1.00  0.00     0.132 A 
ATOM     11  N   UNL     1       1.902  -2.291 -12.387  1.00  0.00    -0.241 NA
ATOM     12  N   UNL     1       2.969  -3.518 -10.739  1.00  0.00    -0.216 NA
ATOM     13  C   UNL     1       3.010  -3.004 -11.971  1.00  0.00     0.127 A 
ATOM     14  C   UNL     1       4.215  -3.114 -12.819  1.00  0.00     0.090 C 
BRANCH  10  15
ATOM     15  N   UNL     1       1.946  -3.804  -8.581  1.00  0.00    -0.383 N 
ATOM     16  H   UNL     1       1.599  -3.071  -7.871  1.00  0.00     0.158 HD
ATOM     17  H   UNL     1       2.296  -4.731  -8.323  1.00  0.00     0.158 HD
ENDBRANCH  10  15
ENDBRANCH   7   8
ENDBRANCH   4   7
ENDBRANCH   2   4
BRANCH   3  18
ATOM     18  C   UNL     1      -3.673  -0.880  -9.470  1.00  0.00     0.073 C 
BRANCH  18  19
ATOM     19  C   UNL     1      -4.604  -1.473  -8.427  1.00  0.00     0.161 C 
BRANCH  19  20
ATOM     20  O   UNL     1      -3.862  -2.017  -7.362  1.00  0.00    -0.396 OA
ATOM     21  H   UNL     1      -3.172  -1.377  -7.082  1.00  0.00     0.210 HD
ENDBRANCH  19  20
ENDBRANCH  18  19
ENDBRANCH   3  18
BRANCH   3  22
ATOM     22  S   UNL     1      -4.710  -1.270 -12.144  1.00  0.00    -0.060 SA
BRANCH  22  23
ATOM     23  S   UNL     1      -5.299   0.765 -12.081  1.00  0.00    -0.086 SA
BRANCH  23  24
ATOM     24  C   UNL     1      -7.090   0.845 -11.618  1.00  0.00     0.114 C 
BRANCH  24  25
ATOM     25  C   UNL     1      -7.811   1.219 -12.860  1.00  0.00     0.129 C 
ATOM     26  C   UNL     1      -6.927   1.295 -14.076  1.00  0.00     0.035 C 
ATOM     27  O   UNL     1      -8.812   0.307 -13.105  1.00  0.00    -0.377 OA
ATOM     28  C   UNL     1      -7.747   0.479 -15.086  1.00  0.00     0.031 C 
ATOM     29  C   UNL     1      -8.261  -0.570 -14.072  1.00  0.00     0.160 C 
ENDBRANCH  24  25
ENDBRANCH  23  24
ENDBRANCH  22  23
ENDBRANCH   3  22
TORSDOF 12
ENDMDL
MODEL 2
REMARK VINA RESULT:    -5.450     30.447     33.332
REMARK INTER + INTRA:         -10.332
REMARK INTER:                  -8.702
REMARK INTRA:                  -1.630
REMARK UNBOUND:                -1.377
REMARK SMILES C/C(=C(/CCO)SSC[C@H]1CCCO1)N(C=O)Cc1cnc(C)nc1N.Cl
REMARK SMILES IDX 1 1 2 2 3 3 15 4 16 5 17 6 18 7 19 8 20 9 25 10 21 11 24 12
REMARK SMILES IDX 22 13 23 14 26 15 4 18 5 19 6 20 7 22 8 23 9 24 10 25 11 26
REMARK SMILES IDX 14 27 12 28 13 29
REMARK H PARENT 26 16 26 17 6 21
REMARK Flexibility Score: inf
ROOT
ATOM      1  C   UNL     1      12.876  -0.337  19.843  1.00  0.00     0.065 C 
ATOM      2  C   UNL     1      14.125  -0.562  18.969  1.00  0.00     0.028 C 
ATOM      3  C   UNL     1      14.580   0.611  18.514  1.00  0.00     0.017 C 
ENDROOT
BRANCH   2   4
ATOM      4  N   UNL     1      14.592  -1.813  18.809  1.00  0.00    -0.314 N 
BRANCH   4   5
ATOM      5  C   UNL     1      15.662  -2.146  19.849  1.00  0.00     0.344 C 
ATOM      6  O   UNL     1      16.358  -3.120  19.770  1.00  0.00    -0.278 OA
ENDBRANCH   4   5
BRANCH   4   7
ATOM      7  C   UNL     1      14.489  -2.966  17.966  1.00  0.00     0.166 C 
BRANCH   7   8
ATOM      8  C   UNL     1      13.276  -3.796  18.143  1.00  0.00     0.032 A 
ATOM      9  C   UNL     1      11.993  -3.412  17.787  1.00  0.00     0.122 A 
ATOM     10  C   UNL     1      13.336  -5.023  18.878  1.00  0.00     0.132 A 
ATOM     11  N   UNL     1      10.933  -4.140  18.124  1.00  0.00    -0.241 NA
ATOM     12  N   UNL     1      12.252  -5.722  19.183  1.00  0.00    -0.216 NA
ATOM     13  C   UNL     1      11.026  -5.327  18.826  1.00  0.00     0.127 A 
ATOM     14  C   UNL     1       9.834  -6.160  19.089  1.00  0.00     0.090 C 
BRANCH  10  15
ATOM     15  N   UNL     1      14.649  -5.520  19.159  1.00  0.00    -0.383 N 
ATOM     16  H   UNL     1      15.436  -4.998  18.640  1.00  0.00     0.158 HD
ATOM     17  H   UNL     1      14.803  -6.324  19.773  1.00  0.00     0.158 HD
ENDBRANCH  10  15
ENDBRANCH   7   8
ENDBRANCH   4   7
ENDBRANCH   2   4
BRANCH   3  18
ATOM     18  C   UNL     1      15.772   0.666  17.650  1.00  0.00     0.073 C 
BRANCH  18  19
ATOM     19  C   UNL     1      15.571   0.124  16.246  1.00  0.00     0.161 C 
BRANCH  19  20
ATOM     20  O   UNL     1      16.777   0.174  15.524  1.00  0.00    -0.396 OA
ATOM     21  H   UNL     1      17.235  -0.692  15.590  1.00  0.00     0.210 HD
ENDBRANCH  19  20
ENDBRANCH  18  19
ENDBRANCH   3  18
BRANCH   3  22
ATOM     22  S   UNL     1      13.600   2.112  18.903  1.00  0.00    -0.060 SA
BRANCH  22  23
ATOM     23  S   UNL     1      11.987   2.285  17.537  1.00  0.00    -0.086 SA
BRANCH  23  24
ATOM     24  C   UNL     1      12.484   1.494  15.938  1.00  0.00     0.114 C 
BRANCH  24  25
ATOM     25  C   UNL     1      11.909   0.126  15.969  1.00  0.00     0.129 C 
ATOM     26  C   UNL     1      10.768  -0.031  16.939  1.00  0.00     0.035 C 
ATOM     27  O   UNL     1      11.464  -0.216  14.713  1.00  0.00    -0.377 OA
ATOM     28  C   UNL     1       9.731  -0.742  16.057  1.00  0.00     0.031 C 
ATOM     29  C   UNL     1      10.068   0.023  14.756  1.00  0.00     0.160 C 
ENDBRANCH  24  25
ENDBRANCH  23  24
ENDBRANCH  22  23
ENDBRANCH   3  22
TORSDOF 12
ENDMDL
MODEL 3
REMARK VINA RESULT:    -5.444     24.746     27.988
REMARK INTER + INTRA:         -10.322
REMARK INTER:                  -8.751
REMARK INTRA:                  -1.571
REMARK UNBOUND:                -1.377
REMARK SMILES C/C(=C(/CCO)SSC[C@H]1CCCO1)N(C=O)Cc1cnc(C)nc1N.Cl
REMARK SMILES IDX 1 1 2 2 3 3 15 4 16 5 17 6 18 7 19 8 20 9 25 10 21 11 24 12
REMARK SMILES IDX 22 13 23 14 26 15 4 18 5 19 6 20 7 22 8 23 9 24 10 25 11 26
REMARK SMILES IDX 14 27 12 28 13 29
REMARK H PARENT 26 16 26 17 6 21
REMARK Flexibility Score: inf
ROOT
ATOM      1  C   UNL     1      17.846  11.906   2.544  1.00  0.00     0.065 C 
ATOM      2  C   UNL     1      17.479  10.412   2.473  1.00  0.00     0.028 C 
ATOM      3  C   UNL     1      18.281   9.786   1.604  1.00  0.00     0.017 C 
ENDROOT
BRANCH   2   4
ATOM      4  N   UNL     1      16.493   9.944   3.260  1.00  0.00    -0.314 N 
BRANCH   4   5
ATOM      5  C   UNL     1      17.007   9.617   4.662  1.00  0.00     0.344 C 
ATOM      6  O   UNL     1      17.889   8.828   4.859  1.00  0.00    -0.278 OA
ENDBRANCH   4   5
BRANCH   4   7
ATOM      7  C   UNL     1      15.108   9.582   3.253  1.00  0.00     0.166 C 
BRANCH   7   8
ATOM      8  C   UNL     1      14.493   9.382   1.921  1.00  0.00     0.032 A 
ATOM      9  C   UNL     1      14.727   8.295   1.094  1.00  0.00     0.122 A 
ATOM     10  C   UNL     1      13.724  10.425   1.312  1.00  0.00     0.132 A 
ATOM     11  N   UNL     1      14.268   8.263  -0.154  1.00  0.00    -0.241 NA
ATOM     12  N   UNL     1      13.278  10.345   0.066  1.00  0.00    -0.216 NA
ATOM     13  C   UNL     1      13.519   9.283  -0.708  1.00  0.00     0.127 A 
ATOM     14  C   UNL     1      12.940   9.162  -2.062  1.00  0.00     0.090 C 
BRANCH  10  15
ATOM     15  N   UNL     1      13.354  11.512   2.169  1.00  0.00    -0.383 N 
ATOM     16  H   UNL     1      13.711  12.472   1.836  1.00  0.00     0.158 HD
ATOM     17  H   UNL     1      12.828  11.364   3.034  1.00  0.00     0.158 HD
ENDBRANCH  10  15
ENDBRANCH   7   8
ENDBRANCH   4   7
ENDBRANCH   2   4
BRANCH   3  18
ATOM     18  C   UNL     1      18.131   8.341   1.355  1.00  0.00     0.073 C 
BRANCH  18  19
ATOM     19  C   UNL     1      19.436   7.568   1.274  1.00  0.00     0.161 C 
BRANCH  19  20
ATOM     20  O   UNL     1      19.655   6.852   2.465  1.00  0.00    -0.396 OA
ATOM     21  H   UNL     1      19.008   7.139   3.145  1.00  0.00     0.210 HD
ENDBRANCH  19  20
ENDBRANCH  18  19
ENDBRANCH   3  18
BRANCH   3  22
ATOM     22  S   UNL     1      19.474  10.810   0.658  1.00  0.00    -0.060 SA
BRANCH  22  23
ATOM     23  S   UNL     1      21.350  10.812   1.646  1.00  0.00    -0.086 SA
BRANCH  23  24
ATOM     24  C   UNL     1      21.079  10.375   3.425  1.00  0.00     0.114 C 
BRANCH  24  25
ATOM     25  C   UNL     1      21.856   9.131   3.657  1.00  0.00     0.129 C 
ATOM     26  C   UNL     1      23.172   9.358   4.351  1.00  0.00     0.035 C 
ATOM     27  O   UNL     1      21.110   8.255   4.411  1.00  0.00    -0.377 OA
ATOM     28  C   UNL     1      23.112   8.285   5.449  1.00  0.00     0.031 C 
ATOM     29  C   UNL     1      21.598   8.422   5.731  1.00  0.00     0.160 C 
ENDBRANCH  24  25
ENDBRANCH  23  24
ENDBRANCH  22  23
ENDBRANCH   3  22
TORSDOF 12
ENDMDL
MODEL 4
REMARK VINA RESULT:    -5.270     29.739     32.329
REMARK INTER + INTRA:         -10.037
REMARK INTER:                  -8.999
REMARK INTRA:                  -1.038
REMARK UNBOUND:                -1.377
REMARK SMILES C/C(=C(/CCO)SSC[C@H]1CCCO1)N(C=O)Cc1cnc(C)nc1N.Cl
REMARK SMILES IDX 1 1 2 2 3 3 15 4 16 5 17 6 18 7 19 8 20 9 25 10 21 11 24 12
REMARK SMILES IDX 22 13 23 14 26 15 4 18 5 19 6 20 7 22 8 23 9 24 10 25 11 26
REMARK SMILES IDX 14 27 12 28 13 29
REMARK H PARENT 26 16 26 17 6 21
REMARK Flexibility Score: inf
ROOT
ATOM      1  C   UNL     1      13.419  -1.014  15.806  1.00  0.00     0.065 C 
ATOM      2  C   UNL     1      13.548  -0.216  17.117  1.00  0.00     0.028 C 
ATOM      3  C   UNL     1      12.750   0.857  17.077  1.00  0.00     0.017 C 
ENDROOT
BRANCH   2   4
ATOM      4  N   UNL     1      14.360  -0.676  18.084  1.00  0.00    -0.314 N 
BRANCH   4   5
ATOM      5  C   UNL     1      15.810  -0.257  17.842  1.00  0.00     0.344 C 
ATOM      6  O   UNL     1      16.699  -0.544  18.596  1.00  0.00    -0.278 OA
ENDBRANCH   4   5
BRANCH   4   7
ATOM      7  C   UNL     1      14.375  -1.481  19.269  1.00  0.00     0.166 C 
BRANCH   7   8
ATOM      8  C   UNL     1      14.154  -2.932  19.074  1.00  0.00     0.032 A 
ATOM      9  C   UNL     1      12.983  -3.500  18.600  1.00  0.00     0.122 A 
ATOM     10  C   UNL     1      15.116  -3.882  19.546  1.00  0.00     0.132 A 
ATOM     11  N   UNL     1      12.800  -4.817  18.606  1.00  0.00    -0.241 NA
ATOM     12  N   UNL     1      14.894  -5.189  19.523  1.00  0.00    -0.216 NA
ATOM     13  C   UNL     1      13.754  -5.709  19.059  1.00  0.00     0.127 A 
ATOM     14  C   UNL     1      13.553  -7.169  18.951  1.00  0.00     0.090 C 
BRANCH  10  15
ATOM     15  N   UNL     1      16.388  -3.348  19.930  1.00  0.00    -0.383 N 
ATOM     16  H   UNL     1      16.474  -3.139  20.983  1.00  0.00     0.158 HD
ATOM     17  H   UNL     1      17.123  -3.155  19.245  1.00  0.00     0.158 HD
ENDBRANCH  10  15
ENDBRANCH   7   8
ENDBRANCH   4   7
ENDBRANCH   2   4
BRANCH   3  18
ATOM     18  C   UNL     1      12.691   1.789  18.218  1.00  0.00     0.073 C 
BRANCH  18  19
ATOM     19  C   UNL     1      13.618   2.987  18.114  1.00  0.00     0.161 C 
BRANCH  19  20
ATOM     20  O   UNL     1      13.345   3.716  16.942  1.00  0.00    -0.396 OA
ATOM     21  H   UNL     1      12.427   3.533  16.647  1.00  0.00     0.210 HD
ENDBRANCH  19  20
ENDBRANCH  18  19
ENDBRANCH   3  18
BRANCH   3  22
ATOM     22  S   UNL     1      11.839   1.183  15.518  1.00  0.00    -0.060 SA
BRANCH  22  23
ATOM     23  S   UNL     1       9.861   1.803  15.965  1.00  0.00    -0.086 SA
BRANCH  23  24
ATOM     24  C   UNL     1       8.927   1.978  14.375  1.00  0.00     0.114 C 
BRANCH  24  25
ATOM     25  C   UNL     1       7.530   1.580  14.683  1.00  0.00     0.129 C 
ATOM     26  C   UNL     1       6.744   1.141  13.477  1.00  0.00     0.035 C 
ATOM     27  O   UNL     1       7.534   0.554  15.599  1.00  0.00    -0.377 OA
ATOM     28  C   UNL     1       6.126  -0.168  13.991  1.00  0.00     0.031 C 
ATOM     29  C   UNL     1       7.352  -0.615  14.820  1.00  0.00     0.160 C 
ENDBRANCH  24  25
ENDBRANCH  23  24
ENDBRANCH  22  23
ENDBRANCH   3  22
TORSDOF 12
ENDMDL
MODEL 5
REMARK VINA RESULT:    -5.248     28.876     32.101
REMARK INTER + INTRA:          -9.999
REMARK INTER:                  -8.752
REMARK INTRA:                  -1.247
REMARK UNBOUND:                -1.377
REMARK SMILES C/C(=C(/CCO)SSC[C@H]1CCCO1)N(C=O)Cc1cnc(C)nc1N.Cl
REMARK SMILES IDX 1 1 2 2 3 3 15 4 16 5 17 6 18 7 19 8 20 9 25 10 21 11 24 12
REMARK SMILES IDX 22 13 23 14 26 15 4 18 5 19 6 20 7 22 8 23 9 24 10 25 11 26
REMARK SMILES IDX 14 27 12 28 13 29
REMARK H PARENT 26 16 26 17 6 21
REMARK Flexibility Score: inf
ROOT
ATOM      1  C   UNL     1      11.165  -0.752  18.058  1.00  0.00     0.065 C 
ATOM      2  C   UNL     1      12.076  -0.256  16.919  1.00  0.00     0.028 C 
ATOM      3  C   UNL     1      13.268  -0.860  16.993  1.00  0.00     0.017 C 
ENDROOT
BRANCH   2   4
ATOM      4  N   UNL     1      11.590   0.631  16.034  1.00  0.00    -0.314 N 
BRANCH   4   5
ATOM      5  C   UNL     1      11.765   2.067  16.530  1.00  0.00     0.344 C 
ATOM      6  O   UNL     1      10.835   2.767  16.821  1.00  0.00    -0.278 OA
ENDBRANCH   4   5
BRANCH   4   7
ATOM      7  C   UNL     1      10.904   0.728  14.780  1.00  0.00     0.166 C 
BRANCH   7   8
ATOM      8  C   UNL     1       9.437   0.539  14.824  1.00  0.00     0.032 A 
ATOM      9  C   UNL     1       8.799  -0.652  15.133  1.00  0.00     0.122 A 
ATOM     10  C   UNL     1       8.558   1.570  14.362  1.00  0.00     0.132 A 
ATOM     11  N   UNL     1       7.484  -0.789  14.993  1.00  0.00    -0.241 NA
ATOM     12  N   UNL     1       7.249   1.391  14.249  1.00  0.00    -0.216 NA
ATOM     13  C   UNL     1       6.661   0.231  14.555  1.00  0.00     0.127 A 
ATOM     14  C   UNL     1       5.193   0.069  14.514  1.00  0.00     0.090 C 
BRANCH  10  15
ATOM     15  N   UNL     1       9.157   2.853  14.148  1.00  0.00    -0.383 N 
ATOM     16  H   UNL     1       9.227   3.458  15.037  1.00  0.00     0.158 HD
ATOM     17  H   UNL     1       9.452   3.164  13.219  1.00  0.00     0.158 HD
ENDBRANCH  10  15
ENDBRANCH   7   8
ENDBRANCH   4   7
ENDBRANCH   2   4
BRANCH   3  18
ATOM     18  C   UNL     1      14.324  -0.556  16.012  1.00  0.00     0.073 C 
BRANCH  18  19
ATOM     19  C   UNL     1      15.630  -0.063  16.609  1.00  0.00     0.161 C 
BRANCH  19  20
ATOM     20  O   UNL     1      16.554   0.231  15.590  1.00  0.00    -0.396 OA
ATOM     21  H   UNL     1      16.154   0.867  14.958  1.00  0.00     0.210 HD
ENDBRANCH  19  20
ENDBRANCH  18  19
ENDBRANCH   3  18
BRANCH   3  22
ATOM     22  S   UNL     1      13.569  -1.974  18.420  1.00  0.00    -0.060 SA
BRANCH  22  23
ATOM     23  S   UNL     1      13.558  -3.990  17.765  1.00  0.00    -0.086 SA
BRANCH  23  24
ATOM     24  C   UNL     1      13.667  -5.092  19.250  1.00  0.00     0.114 C 
BRANCH  24  25
ATOM     25  C   UNL     1      12.280  -5.215  19.763  1.00  0.00     0.129 C 
ATOM     26  C   UNL     1      11.226  -4.816  18.765  1.00  0.00     0.035 C 
ATOM     27  O   UNL     1      12.045  -6.514  20.150  1.00  0.00    -0.377 OA
ATOM     28  C   UNL     1      10.258  -6.005  18.869  1.00  0.00     0.031 C 
ATOM     29  C   UNL     1      11.347  -7.087  19.057  1.00  0.00     0.160 C 
ENDBRANCH  24  25
ENDBRANCH  23  24
ENDBRANCH  22  23
ENDBRANCH   3  22
TORSDOF 12
ENDMDL
