MODEL 1
REMARK VINA RESULT:    -7.738      0.000      0.000
REMARK INTER + INTRA:         -10.108
REMARK INTER:                  -9.774
REMARK INTRA:                  -0.334
REMARK UNBOUND:                -0.334
REMARK SMILES CC(=O)OCC(=O)[C@H]1CC[C@H]2[C@@H]3CC[C@H]4C[C@H](O)CC[C@]4(C)[C@H]3C(=O)C[C@]12C
REMARK SMILES IDX 5 1 4 2 2 3 1 4 3 5 6 6 7 7 8 8 9 9 27 10 10 11 11 12 26 13
REMARK SMILES IDX 28 14 12 15 24 16 13 17 23 18 25 19 14 20 21 21 15 22 20 23
REMARK SMILES IDX 22 24 16 25 19 26 17 27 18 28
REMARK H PARENT 18 29
REMARK Flexibility Score: inf
ROOT
ATOM      1  C   UNL     1     -20.277  13.018   4.411  1.00  0.00     0.308 C 
ENDROOT
BRANCH   1   2
ATOM      2  O   UNL     1     -21.462  12.496   4.977  1.00  0.00    -0.458 OA
BRANCH   2   3
ATOM      3  C   UNL     1     -21.440  11.913   6.235  1.00  0.00     0.303 C 
ATOM      4  C   UNL     1     -20.512  12.404   7.312  1.00  0.00     0.139 C 
ATOM      5  O   UNL     1     -22.228  10.954   6.440  1.00  0.00    -0.253 OA
ENDBRANCH   2   3
ENDBRANCH   1   2
BRANCH   1   6
ATOM      6  C   UNL     1     -19.623  12.077   3.482  1.00  0.00     0.173 C 
ATOM      7  O   UNL     1     -20.210  11.092   3.130  1.00  0.00    -0.296 OA
BRANCH   6   8
ATOM      8  C   UNL     1     -18.267  12.366   3.008  1.00  0.00     0.066 C 
ATOM      9  C   UNL     1     -18.020  13.879   3.106  1.00  0.00     0.012 C 
ATOM     10  C   UNL     1     -17.154  11.771   3.831  1.00  0.00    -0.013 C 
ATOM     11  C   UNL     1     -16.637  14.040   3.712  1.00  0.00     0.005 C 
ATOM     12  C   UNL     1     -16.034  12.689   3.482  1.00  0.00    -0.000 C 
ATOM     13  C   UNL     1     -16.766  10.380   3.311  1.00  0.00     0.083 C 
ATOM     14  C   UNL     1     -17.477  11.638   5.273  1.00  0.00     0.013 C 
ATOM     15  C   UNL     1     -14.769  12.412   4.192  1.00  0.00     0.004 C 
ATOM     16  C   UNL     1     -15.433  10.056   3.918  1.00  0.00     0.137 C 
ATOM     17  C   UNL     1     -13.691  13.409   3.779  1.00  0.00     0.005 C 
ATOM     18  C   UNL     1     -14.328  11.007   3.754  1.00  0.00     0.066 C 
ATOM     19  O   UNL     1     -15.237   9.023   4.547  1.00  0.00    -0.299 OA
ATOM     20  C   UNL     1     -12.457  13.034   4.610  1.00  0.00     0.004 C 
ATOM     21  C   UNL     1     -13.080  10.605   4.451  1.00  0.00    -0.020 C 
ATOM     22  C   UNL     1     -12.027  11.671   4.165  1.00  0.00    -0.002 C 
ATOM     23  C   UNL     1     -12.567   9.316   3.884  1.00  0.00     0.010 C 
ATOM     24  C   UNL     1     -13.331  10.466   5.928  1.00  0.00     0.012 C 
ATOM     25  C   UNL     1     -10.707  11.246   4.719  1.00  0.00     0.036 C 
ATOM     26  C   UNL     1     -11.311   9.482   3.064  1.00  0.00     0.032 C 
ATOM     27  C   UNL     1     -10.186  10.116   3.832  1.00  0.00     0.114 C 
BRANCH  27  28
ATOM     28  O   UNL     1      -9.308  10.708   2.904  1.00  0.00    -0.393 OA
ATOM     29  H   UNL     1      -9.827  11.018   2.104  1.00  0.00     0.210 HD
ENDBRANCH  27  28
ENDBRANCH   6   8
ENDBRANCH   1   6
TORSDOF 5
ENDMDL
MODEL 2
REMARK VINA RESULT:    -7.433     19.833     23.762
REMARK INTER + INTRA:          -9.722
REMARK INTER:                  -9.626
REMARK INTRA:                  -0.096
REMARK UNBOUND:                -0.334
REMARK SMILES CC(=O)OCC(=O)[C@H]1CC[C@H]2[C@@H]3CC[C@H]4C[C@H](O)CC[C@]4(C)[C@H]3C(=O)C[C@]12C
REMARK SMILES IDX 5 1 4 2 2 3 1 4 3 5 6 6 7 7 8 8 9 9 27 10 10 11 11 12 26 13
REMARK SMILES IDX 28 14 12 15 24 16 13 17 23 18 25 19 14 20 21 21 15 22 20 23
REMARK SMILES IDX 22 24 16 25 19 26 17 27 18 28
REMARK H PARENT 18 29
REMARK Flexibility Score: inf
ROOT
ATOM      1  C   UNL     1      -6.449   2.606 -12.767  1.00  0.00     0.308 C 
ENDROOT
BRANCH   1   2
ATOM      2  O   UNL     1      -5.680   3.736 -12.407  1.00  0.00    -0.458 OA
BRANCH   2   3
ATOM      3  C   UNL     1      -6.290   4.848 -11.843  1.00  0.00     0.303 C 
ATOM      4  C   UNL     1      -7.750   5.134 -12.054  1.00  0.00     0.139 C 
ATOM      5  O   UNL     1      -5.569   5.608 -11.147  1.00  0.00    -0.253 OA
ENDBRANCH   2   3
ENDBRANCH   1   2
BRANCH   1   6
ATOM      6  C   UNL     1      -6.632   1.660 -11.651  1.00  0.00     0.173 C 
ATOM      7  O   UNL     1      -6.867   2.081 -10.552  1.00  0.00    -0.296 OA
BRANCH   6   8
ATOM      8  C   UNL     1      -6.523   0.221 -11.908  1.00  0.00     0.066 C 
ATOM      9  C   UNL     1      -6.675  -0.025 -13.416  1.00  0.00     0.012 C 
ATOM     10  C   UNL     1      -5.188  -0.394 -11.580  1.00  0.00    -0.013 C 
ATOM     11  C   UNL     1      -5.584  -1.012 -13.792  1.00  0.00     0.005 C 
ATOM     12  C   UNL     1      -5.215  -1.594 -12.463  1.00  0.00    -0.000 C 
ATOM     13  C   UNL     1      -5.156  -0.908 -10.135  1.00  0.00     0.083 C 
ATOM     14  C   UNL     1      -4.040   0.530 -11.755  1.00  0.00     0.013 C 
ATOM     15  C   UNL     1      -3.984  -2.410 -12.430  1.00  0.00     0.004 C 
ATOM     16  C   UNL     1      -3.974  -1.827 -10.036  1.00  0.00     0.137 C 
ATOM     17  C   UNL     1      -4.104  -3.603 -13.372  1.00  0.00     0.005 C 
ATOM     18  C   UNL     1      -3.854  -2.934 -10.991  1.00  0.00     0.066 C 
ATOM     19  O   UNL     1      -3.106  -1.684  -9.184  1.00  0.00    -0.299 OA
ATOM     20  C   UNL     1      -2.759  -4.333 -13.268  1.00  0.00     0.004 C 
ATOM     21  C   UNL     1      -2.614  -3.735 -10.832  1.00  0.00    -0.020 C 
ATOM     22  C   UNL     1      -2.649  -4.854 -11.869  1.00  0.00    -0.002 C 
ATOM     23  C   UNL     1      -2.592  -4.386  -9.482  1.00  0.00     0.010 C 
ATOM     24  C   UNL     1      -1.403  -2.860 -11.013  1.00  0.00     0.012 C 
ATOM     25  C   UNL     1      -1.497  -5.780 -11.660  1.00  0.00     0.036 C 
ATOM     26  C   UNL     1      -2.799  -5.880  -9.536  1.00  0.00     0.032 C 
ATOM     27  C   UNL     1      -1.787  -6.585 -10.393  1.00  0.00     0.114 C 
BRANCH  27  28
ATOM     28  O   UNL     1      -2.350  -7.805 -10.814  1.00  0.00    -0.393 OA
ATOM     29  H   UNL     1      -1.970  -8.554 -10.265  1.00  0.00     0.210 HD
ENDBRANCH  27  28
ENDBRANCH   6   8
ENDBRANCH   1   6
TORSDOF 5
ENDMDL
MODEL 3
REMARK VINA RESULT:    -7.044      1.515      7.626
REMARK INTER + INTRA:          -9.232
REMARK INTER:                  -8.913
REMARK INTRA:                  -0.319
REMARK UNBOUND:                -0.334
REMARK SMILES CC(=O)OCC(=O)[C@H]1CC[C@H]2[C@@H]3CC[C@H]4C[C@H](O)CC[C@]4(C)[C@H]3C(=O)C[C@]12C
REMARK SMILES IDX 5 1 4 2 2 3 1 4 3 5 6 6 7 7 8 8 9 9 27 10 10 11 11 12 26 13
REMARK SMILES IDX 28 14 12 15 24 16 13 17 23 18 25 19 14 20 21 21 15 22 20 23
REMARK SMILES IDX 22 24 16 25 19 26 17 27 18 28
REMARK H PARENT 18 29
REMARK Flexibility Score: inf
ROOT
ATOM      1  C   UNL     1     -11.183  10.363   5.233  1.00  0.00     0.308 C 
ENDROOT
BRANCH   1   2
ATOM      2  O   UNL     1     -10.344   9.793   4.250  1.00  0.00    -0.458 OA
BRANCH   2   3
ATOM      3  C   UNL     1     -10.698   8.601   3.633  1.00  0.00     0.303 C 
ATOM      4  C   UNL     1     -12.079   8.382   3.080  1.00  0.00     0.139 C 
ATOM      5  O   UNL     1      -9.814   7.709   3.556  1.00  0.00    -0.253 OA
ENDBRANCH   2   3
ENDBRANCH   1   2
BRANCH   1   6
ATOM      6  C   UNL     1     -11.760  11.654   4.813  1.00  0.00     0.173 C 
ATOM      7  O   UNL     1     -11.208  12.301   3.968  1.00  0.00    -0.296 OA
BRANCH   6   8
ATOM      8  C   UNL     1     -13.000  12.121   5.439  1.00  0.00     0.066 C 
ATOM      9  C   UNL     1     -12.943  13.649   5.573  1.00  0.00     0.012 C 
ATOM     10  C   UNL     1     -14.256  11.881   4.643  1.00  0.00    -0.013 C 
ATOM     11  C   UNL     1     -14.298  14.162   5.119  1.00  0.00     0.005 C 
ATOM     12  C   UNL     1     -15.146  12.931   5.212  1.00  0.00    -0.000 C 
ATOM     13  C   UNL     1     -14.886  10.527   4.997  1.00  0.00     0.083 C 
ATOM     14  C   UNL     1     -14.052  11.911   3.173  1.00  0.00     0.013 C 
ATOM     15  C   UNL     1     -16.481  13.013   4.583  1.00  0.00     0.004 C 
ATOM     16  C   UNL     1     -16.290  10.559   4.469  1.00  0.00     0.137 C 
ATOM     17  C   UNL     1     -17.309  14.122   5.223  1.00  0.00     0.005 C 
ATOM     18  C   UNL     1     -17.169  11.667   4.859  1.00  0.00     0.066 C 
ATOM     19  O   UNL     1     -16.726   9.692   3.724  1.00  0.00    -0.299 OA
ATOM     20  C   UNL     1     -18.640  14.120   4.459  1.00  0.00     0.004 C 
ATOM     21  C   UNL     1     -18.511  11.622   4.225  1.00  0.00    -0.020 C 
ATOM     22  C   UNL     1     -19.309  12.813   4.747  1.00  0.00    -0.002 C 
ATOM     23  C   UNL     1     -19.239  10.383   4.651  1.00  0.00     0.010 C 
ATOM     24  C   UNL     1     -18.380  11.665   2.727  1.00  0.00     0.012 C 
ATOM     25  C   UNL     1     -20.718  12.737   4.256  1.00  0.00     0.036 C 
ATOM     26  C   UNL     1     -20.386  10.658   5.592  1.00  0.00     0.032 C 
ATOM     27  C   UNL     1     -21.403  11.605   5.021  1.00  0.00     0.114 C 
BRANCH  27  28
ATOM     28  O   UNL     1     -22.089  12.204   6.095  1.00  0.00    -0.393 OA
ATOM     29  H   UNL     1     -21.661  11.929   6.959  1.00  0.00     0.210 HD
ENDBRANCH  27  28
ENDBRANCH   6   8
ENDBRANCH   1   6
TORSDOF 5
ENDMDL
MODEL 4
REMARK VINA RESULT:    -6.903     21.851     25.076
REMARK INTER + INTRA:          -9.053
REMARK INTER:                  -8.650
REMARK INTRA:                  -0.403
REMARK UNBOUND:                -0.334
REMARK SMILES CC(=O)OCC(=O)[C@H]1CC[C@H]2[C@@H]3CC[C@H]4C[C@H](O)CC[C@]4(C)[C@H]3C(=O)C[C@]12C
REMARK SMILES IDX 5 1 4 2 2 3 1 4 3 5 6 6 7 7 8 8 9 9 27 10 10 11 11 12 26 13
REMARK SMILES IDX 28 14 12 15 24 16 13 17 23 18 25 19 14 20 21 21 15 22 20 23
REMARK SMILES IDX 22 24 16 25 19 26 17 27 18 28
REMARK H PARENT 18 29
REMARK Flexibility Score: inf
ROOT
ATOM      1  C   UNL     1      -0.457  -4.178 -10.385  1.00  0.00     0.308 C 
ENDROOT
BRANCH   1   2
ATOM      2  O   UNL     1      -0.985  -5.421  -9.968  1.00  0.00    -0.458 OA
BRANCH   2   3
ATOM      3  C   UNL     1      -1.621  -6.252 -10.879  1.00  0.00     0.303 C 
ATOM      4  C   UNL     1      -2.688  -7.220 -10.448  1.00  0.00     0.139 C 
ATOM      5  O   UNL     1      -1.266  -6.165 -12.083  1.00  0.00    -0.253 OA
ENDBRANCH   2   3
ENDBRANCH   1   2
BRANCH   1   6
ATOM      6  C   UNL     1      -0.973  -3.043  -9.597  1.00  0.00     0.173 C 
ATOM      7  O   UNL     1      -0.213  -2.384  -8.944  1.00  0.00    -0.296 OA
BRANCH   6   8
ATOM      8  C   UNL     1      -2.407  -2.744  -9.628  1.00  0.00     0.066 C 
ATOM      9  C   UNL     1      -2.724  -1.725  -8.524  1.00  0.00     0.012 C 
ATOM     10  C   UNL     1      -2.900  -2.072 -10.883  1.00  0.00    -0.013 C 
ATOM     11  C   UNL     1      -3.635  -0.688  -9.159  1.00  0.00     0.005 C 
ATOM     12  C   UNL     1      -4.132  -1.409 -10.373  1.00  0.00    -0.000 C 
ATOM     13  C   UNL     1      -3.352  -3.107 -11.922  1.00  0.00     0.083 C 
ATOM     14  C   UNL     1      -1.894  -1.194 -11.531  1.00  0.00     0.013 C 
ATOM     15  C   UNL     1      -4.845  -0.585 -11.371  1.00  0.00     0.004 C 
ATOM     16  C   UNL     1      -4.169  -2.363 -12.937  1.00  0.00     0.137 C 
ATOM     17  C   UNL     1      -6.080   0.061 -10.752  1.00  0.00     0.005 C 
ATOM     18  C   UNL     1      -5.300  -1.548 -12.478  1.00  0.00     0.066 C 
ATOM     19  O   UNL     1      -3.922  -2.412 -14.136  1.00  0.00    -0.299 OA
ATOM     20  C   UNL     1      -6.695   0.907 -11.875  1.00  0.00     0.004 C 
ATOM     21  C   UNL     1      -5.991  -0.811 -13.567  1.00  0.00    -0.020 C 
ATOM     22  C   UNL     1      -7.149  -0.041 -12.940  1.00  0.00    -0.002 C 
ATOM     23  C   UNL     1      -6.584  -1.779 -14.545  1.00  0.00     0.010 C 
ATOM     24  C   UNL     1      -5.029   0.114 -14.261  1.00  0.00     0.012 C 
ATOM     25  C   UNL     1      -7.971   0.603 -14.008  1.00  0.00     0.036 C 
ATOM     26  C   UNL     1      -8.091  -1.842 -14.486  1.00  0.00     0.032 C 
ATOM     27  C   UNL     1      -8.746  -0.509 -14.715  1.00  0.00     0.114 C 
BRANCH  27  28
ATOM     28  O   UNL     1     -10.023  -0.547 -14.123  1.00  0.00    -0.393 OA
ATOM     29  H   UNL     1     -10.132  -1.407 -13.620  1.00  0.00     0.210 HD
ENDBRANCH  27  28
ENDBRANCH   6   8
ENDBRANCH   1   6
TORSDOF 5
ENDMDL
MODEL 5
REMARK VINA RESULT:    -6.813     23.018     27.114
REMARK INTER + INTRA:          -8.939
REMARK INTER:                  -8.559
REMARK INTRA:                  -0.381
REMARK UNBOUND:                -0.334
REMARK SMILES CC(=O)OCC(=O)[C@H]1CC[C@H]2[C@@H]3CC[C@H]4C[C@H](O)CC[C@]4(C)[C@H]3C(=O)C[C@]12C
REMARK SMILES IDX 5 1 4 2 2 3 1 4 3 5 6 6 7 7 8 8 9 9 27 10 10 11 11 12 26 13
REMARK SMILES IDX 28 14 12 15 24 16 13 17 23 18 25 19 14 20 21 21 15 22 20 23
REMARK SMILES IDX 22 24 16 25 19 26 17 27 18 28
REMARK H PARENT 18 29
REMARK Flexibility Score: inf
ROOT
ATOM      1  C   UNL     1      -5.016  -5.805 -17.336  1.00  0.00     0.308 C 
ENDROOT
BRANCH   1   2
ATOM      2  O   UNL     1      -5.789  -6.716 -18.091  1.00  0.00    -0.458 OA
BRANCH   2   3
ATOM      3  C   UNL     1      -6.789  -7.461 -17.482  1.00  0.00     0.303 C 
ATOM      4  C   UNL     1      -7.720  -6.848 -16.472  1.00  0.00     0.139 C 
ATOM      5  O   UNL     1      -6.884  -8.672 -17.808  1.00  0.00    -0.253 OA
ENDBRANCH   2   3
ENDBRANCH   1   2
BRANCH   1   6
ATOM      6  C   UNL     1      -4.063  -6.476 -16.432  1.00  0.00     0.173 C 
ATOM      7  O   UNL     1      -3.153  -7.105 -16.896  1.00  0.00    -0.296 OA
BRANCH   6   8
ATOM      8  C   UNL     1      -4.247  -6.358 -14.983  1.00  0.00     0.066 C 
ATOM      9  C   UNL     1      -3.490  -7.503 -14.293  1.00  0.00     0.012 C 
ATOM     10  C   UNL     1      -3.664  -5.118 -14.357  1.00  0.00    -0.013 C 
ATOM     11  C   UNL     1      -2.755  -6.874 -13.122  1.00  0.00     0.005 C 
ATOM     12  C   UNL     1      -3.487  -5.579 -12.951  1.00  0.00    -0.000 C 
ATOM     13  C   UNL     1      -4.693  -3.980 -14.324  1.00  0.00     0.083 C 
ATOM     14  C   UNL     1      -2.451  -4.609 -15.044  1.00  0.00     0.013 C 
ATOM     15  C   UNL     1      -2.856  -4.589 -12.054  1.00  0.00     0.004 C 
ATOM     16  C   UNL     1      -4.168  -2.960 -13.356  1.00  0.00     0.137 C 
ATOM     17  C   UNL     1      -2.707  -5.157 -10.647  1.00  0.00     0.005 C 
ATOM     18  C   UNL     1      -3.812  -3.388 -11.998  1.00  0.00     0.066 C 
ATOM     19  O   UNL     1      -4.027  -1.783 -13.662  1.00  0.00    -0.299 OA
ATOM     20  C   UNL     1      -2.011  -4.052  -9.840  1.00  0.00     0.004 C 
ATOM     21  C   UNL     1      -3.247  -2.304 -11.155  1.00  0.00    -0.020 C 
ATOM     22  C   UNL     1      -2.957  -2.893  -9.778  1.00  0.00    -0.002 C 
ATOM     23  C   UNL     1      -4.264  -1.220 -10.964  1.00  0.00     0.010 C 
ATOM     24  C   UNL     1      -2.000  -1.749 -11.787  1.00  0.00     0.012 C 
ATOM     25  C   UNL     1      -2.524  -1.813  -8.842  1.00  0.00     0.036 C 
ATOM     26  C   UNL     1      -4.821  -1.162  -9.562  1.00  0.00     0.032 C 
ATOM     27  C   UNL     1      -3.760  -0.976  -8.514  1.00  0.00     0.114 C 
BRANCH  27  28
ATOM     28  O   UNL     1      -4.265  -1.467  -7.295  1.00  0.00    -0.393 OA
ATOM     29  H   UNL     1      -5.080  -0.942  -7.036  1.00  0.00     0.210 HD
ENDBRANCH  27  28
ENDBRANCH   6   8
ENDBRANCH   1   6
TORSDOF 5
ENDMDL
