MODEL 1
REMARK VINA RESULT:    -6.366      0.000      0.000
REMARK INTER + INTRA:          -8.433
REMARK INTER:                  -7.854
REMARK INTRA:                  -0.579
REMARK UNBOUND:                -0.579
REMARK SMILES COC(=O)Nc1nc2cc(C(=O)c3cccs3)ccc2[nH]1
REMARK SMILES IDX 6 1 7 2 8 3 9 4 10 5 18 6 19 7 20 8 21 9 5 11 3 12 4 13 2 15
REMARK SMILES IDX 1 16 11 17 12 18 13 19 14 20 17 21 15 22 16 23
REMARK H PARENT 21 10 5 14
REMARK Flexibility Score: inf
ROOT
ATOM      1  C   UNL     1      15.496  -1.250  19.437  1.00  0.00     0.210 A 
ATOM      2  N   UNL     1      14.714  -0.169  19.131  1.00  0.00    -0.213 NA
ATOM      3  C   UNL     1      13.998  -0.422  18.027  1.00  0.00     0.091 A 
ATOM      4  C   UNL     1      13.059   0.282  17.267  1.00  0.00     0.043 A 
ATOM      5  C   UNL     1      12.454  -0.218  16.145  1.00  0.00     0.026 A 
ATOM      6  C   UNL     1      12.813  -1.524  15.748  1.00  0.00     0.014 A 
ATOM      7  C   UNL     1      13.728  -2.231  16.475  1.00  0.00     0.029 A 
ATOM      8  C   UNL     1      14.315  -1.690  17.600  1.00  0.00     0.067 A 
ATOM      9  N   UNL     1      15.228  -2.149  18.490  1.00  0.00    -0.324 N 
ATOM     10  H   UNL     1      15.640  -3.100  18.395  1.00  0.00     0.170 HD
ENDROOT
BRANCH   1  11
ATOM     11  N   UNL     1      16.387  -1.340  20.540  1.00  0.00    -0.261 N 
ATOM     12  C   UNL     1      17.236  -2.428  20.728  1.00  0.00     0.413 C 
ATOM     13  O   UNL     1      17.270  -3.398  19.941  1.00  0.00    -0.224 OA
ATOM     14  H   UNL     1      16.421  -0.556  21.258  1.00  0.00     0.176 HD
BRANCH  12  15
ATOM     15  O   UNL     1      18.125  -2.513  21.828  1.00  0.00    -0.453 OA
ATOM     16  C   UNL     1      19.037  -1.434  22.048  1.00  0.00     0.284 C 
ENDBRANCH  12  15
ENDBRANCH   1  11
BRANCH   5  17
ATOM     17  C   UNL     1      11.479   0.493  15.342  1.00  0.00     0.203 C 
ATOM     18  O   UNL     1      11.905   1.536  14.719  1.00  0.00    -0.288 OA
BRANCH  17  19
ATOM     19  C   UNL     1      10.112   0.088  15.221  1.00  0.00     0.075 A 
ATOM     20  C   UNL     1       9.353  -1.022  15.111  1.00  0.00     0.024 A 
ATOM     21  S   UNL     1       8.788   1.394  15.149  1.00  0.00    -0.140 S 
ATOM     22  C   UNL     1       8.039  -0.997  14.990  1.00  0.00     0.012 A 
ATOM     23  C   UNL     1       7.379   0.245  14.975  1.00  0.00     0.065 A 
ENDBRANCH  17  19
ENDBRANCH   5  17
TORSDOF 4
ENDMDL
MODEL 2
REMARK VINA RESULT:    -6.228     29.813     33.234
REMARK INTER + INTRA:          -8.262
REMARK INTER:                  -7.622
REMARK INTRA:                  -0.640
REMARK UNBOUND:                -0.579
REMARK SMILES COC(=O)Nc1nc2cc(C(=O)c3cccs3)ccc2[nH]1
REMARK SMILES IDX 6 1 7 2 8 3 9 4 10 5 18 6 19 7 20 8 21 9 5 11 3 12 4 13 2 15
REMARK SMILES IDX 1 16 11 17 12 18 13 19 14 20 17 21 15 22 16 23
REMARK H PARENT 21 10 5 14
REMARK Flexibility Score: inf
ROOT
ATOM      1  C   UNL     1     -12.744   7.668   3.678  1.00  0.00     0.210 A 
ATOM      2  N   UNL     1     -12.728   8.842   2.975  1.00  0.00    -0.213 NA
ATOM      3  C   UNL     1     -13.582   9.715   3.527  1.00  0.00     0.091 A 
ATOM      4  C   UNL     1     -13.977  11.028   3.256  1.00  0.00     0.043 A 
ATOM      5  C   UNL     1     -14.898  11.719   3.997  1.00  0.00     0.026 A 
ATOM      6  C   UNL     1     -15.472  11.047   5.098  1.00  0.00     0.014 A 
ATOM      7  C   UNL     1     -15.102   9.764   5.383  1.00  0.00     0.029 A 
ATOM      8  C   UNL     1     -14.169   9.104   4.610  1.00  0.00     0.067 A 
ATOM      9  N   UNL     1     -13.626   7.862   4.658  1.00  0.00    -0.324 N 
ATOM     10  H   UNL     1     -13.904   7.182   5.395  1.00  0.00     0.170 HD
ENDROOT
BRANCH   1  11
ATOM     11  N   UNL     1     -11.966   6.516   3.379  1.00  0.00    -0.261 N 
ATOM     12  C   UNL     1     -12.380   5.229   3.714  1.00  0.00     0.413 C 
ATOM     13  O   UNL     1     -13.460   5.000   4.299  1.00  0.00    -0.224 OA
ATOM     14  H   UNL     1     -11.032   6.622   2.883  1.00  0.00     0.176 HD
BRANCH  12  15
ATOM     15  O   UNL     1     -11.603   4.083   3.413  1.00  0.00    -0.453 OA
ATOM     16  C   UNL     1     -11.961   2.841   4.025  1.00  0.00     0.284 C 
ENDBRANCH  12  15
ENDBRANCH   1  11
BRANCH   5  17
ATOM     17  C   UNL     1     -15.323  13.079   3.734  1.00  0.00     0.203 C 
ATOM     18  O   UNL     1     -14.390  13.962   3.649  1.00  0.00    -0.288 OA
BRANCH  17  19
ATOM     19  C   UNL     1     -16.693  13.458   3.567  1.00  0.00     0.075 A 
ATOM     20  C   UNL     1     -17.882  12.950   3.181  1.00  0.00     0.024 A 
ATOM     21  S   UNL     1     -17.193  15.213   3.932  1.00  0.00    -0.140 S 
ATOM     22  C   UNL     1     -18.995  13.658   3.135  1.00  0.00     0.012 A 
ATOM     23  C   UNL     1     -18.958  15.014   3.505  1.00  0.00     0.065 A 
ENDBRANCH  17  19
ENDBRANCH   5  17
TORSDOF 4
ENDMDL
MODEL 3
REMARK VINA RESULT:    -6.202     31.082     35.814
REMARK INTER + INTRA:          -8.231
REMARK INTER:                  -7.585
REMARK INTRA:                  -0.646
REMARK UNBOUND:                -0.579
REMARK SMILES COC(=O)Nc1nc2cc(C(=O)c3cccs3)ccc2[nH]1
REMARK SMILES IDX 6 1 7 2 8 3 9 4 10 5 18 6 19 7 20 8 21 9 5 11 3 12 4 13 2 15
REMARK SMILES IDX 1 16 11 17 12 18 13 19 14 20 17 21 15 22 16 23
REMARK H PARENT 21 10 5 14
REMARK Flexibility Score: inf
ROOT
ATOM      1  C   UNL     1     -15.122   9.965   3.415  1.00  0.00     0.210 A 
ATOM      2  N   UNL     1     -16.347   9.482   3.790  1.00  0.00    -0.213 NA
ATOM      3  C   UNL     1     -17.240  10.480   3.820  1.00  0.00     0.091 A 
ATOM      4  C   UNL     1     -18.602  10.588   4.118  1.00  0.00     0.043 A 
ATOM      5  C   UNL     1     -19.304  11.763   4.072  1.00  0.00     0.026 A 
ATOM      6  C   UNL     1     -18.592  12.924   3.698  1.00  0.00     0.014 A 
ATOM      7  C   UNL     1     -17.262  12.842   3.402  1.00  0.00     0.029 A 
ATOM      8  C   UNL     1     -16.592  11.638   3.460  1.00  0.00     0.067 A 
ATOM      9  N   UNL     1     -15.308  11.271   3.226  1.00  0.00    -0.324 N 
ATOM     10  H   UNL     1     -14.594  11.970   2.935  1.00  0.00     0.170 HD
ENDROOT
BRANCH   1  11
ATOM     11  N   UNL     1     -13.936   9.193   3.278  1.00  0.00    -0.261 N 
ATOM     12  C   UNL     1     -12.665   9.749   3.397  1.00  0.00     0.413 C 
ATOM     13  O   UNL     1     -12.481  10.962   3.631  1.00  0.00    -0.224 OA
ATOM     14  H   UNL     1     -14.004   8.151   3.076  1.00  0.00     0.176 HD
BRANCH  12  15
ATOM     15  O   UNL     1     -11.486   8.976   3.261  1.00  0.00    -0.453 OA
ATOM     16  C   UNL     1     -10.562   8.951   4.351  1.00  0.00     0.284 C 
ENDBRANCH  12  15
ENDBRANCH   1  11
BRANCH   5  17
ATOM     17  C   UNL     1     -20.714  11.899   4.378  1.00  0.00     0.203 C 
ATOM     18  O   UNL     1     -21.532  11.677   3.410  1.00  0.00    -0.288 OA
BRANCH  17  19
ATOM     19  C   UNL     1     -21.208  12.254   5.674  1.00  0.00     0.075 A 
ATOM     20  C   UNL     1     -21.419  13.332   6.456  1.00  0.00     0.024 A 
ATOM     21  S   UNL     1     -21.772  10.904   6.824  1.00  0.00    -0.140 S 
ATOM     22  C   UNL     1     -21.901  13.259   7.683  1.00  0.00     0.012 A 
ATOM     23  C   UNL     1     -22.217  11.997   8.218  1.00  0.00     0.065 A 
ENDBRANCH  17  19
ENDBRANCH   5  17
TORSDOF 4
ENDMDL
MODEL 4
REMARK VINA RESULT:    -5.935     29.605     34.270
REMARK INTER + INTRA:          -7.901
REMARK INTER:                  -7.282
REMARK INTRA:                  -0.619
REMARK UNBOUND:                -0.579
REMARK SMILES COC(=O)Nc1nc2cc(C(=O)c3cccs3)ccc2[nH]1
REMARK SMILES IDX 6 1 7 2 8 3 9 4 10 5 18 6 19 7 20 8 21 9 5 11 3 12 4 13 2 15
REMARK SMILES IDX 1 16 11 17 12 18 13 19 14 20 17 21 15 22 16 23
REMARK H PARENT 21 10 5 14
REMARK Flexibility Score: inf
ROOT
ATOM      1  C   UNL     1     -13.025  10.189   3.605  1.00  0.00     0.210 A 
ATOM      2  N   UNL     1     -13.474  11.481   3.666  1.00  0.00    -0.213 NA
ATOM      3  C   UNL     1     -14.813  11.499   3.636  1.00  0.00     0.091 A 
ATOM      4  C   UNL     1     -15.795  12.493   3.671  1.00  0.00     0.043 A 
ATOM      5  C   UNL     1     -17.141  12.242   3.626  1.00  0.00     0.026 A 
ATOM      6  C   UNL     1     -17.540  10.890   3.541  1.00  0.00     0.014 A 
ATOM      7  C   UNL     1     -16.598   9.902   3.506  1.00  0.00     0.029 A 
ATOM      8  C   UNL     1     -15.252  10.199   3.554  1.00  0.00     0.067 A 
ATOM      9  N   UNL     1     -14.127   9.442   3.537  1.00  0.00    -0.324 N 
ATOM     10  H   UNL     1     -14.178   8.405   3.476  1.00  0.00     0.170 HD
ENDROOT
BRANCH   1  11
ATOM     11  N   UNL     1     -11.661   9.786   3.611  1.00  0.00    -0.261 N 
ATOM     12  C   UNL     1     -11.279   8.447   3.625  1.00  0.00     0.413 C 
ATOM     13  O   UNL     1     -12.106   7.511   3.633  1.00  0.00    -0.224 OA
ATOM     14  H   UNL     1     -10.893  10.521   3.606  1.00  0.00     0.176 HD
BRANCH  12  15
ATOM     15  O   UNL     1      -9.918   8.050   3.630  1.00  0.00    -0.453 OA
ATOM     16  C   UNL     1      -9.065   8.565   4.655  1.00  0.00     0.284 C 
ENDBRANCH  12  15
ENDBRANCH   1  11
BRANCH   5  17
ATOM     17  C   UNL     1     -18.175  13.256   3.659  1.00  0.00     0.203 C 
ATOM     18  O   UNL     1     -19.070  13.188   2.736  1.00  0.00    -0.288 OA
BRANCH  17  19
ATOM     19  C   UNL     1     -18.234  14.288   4.648  1.00  0.00     0.075 A 
ATOM     20  C   UNL     1     -17.888  14.535   5.928  1.00  0.00     0.024 A 
ATOM     21  S   UNL     1     -19.053  15.903   4.217  1.00  0.00    -0.140 S 
ATOM     22  C   UNL     1     -18.144  15.673   6.546  1.00  0.00     0.012 A 
ATOM     23  C   UNL     1     -18.812  16.694   5.846  1.00  0.00     0.065 A 
ENDBRANCH  17  19
ENDBRANCH   5  17
TORSDOF 4
ENDMDL
MODEL 5
REMARK VINA RESULT:    -5.897     40.110     43.088
REMARK INTER + INTRA:          -7.854
REMARK INTER:                  -7.182
REMARK INTRA:                  -0.672
REMARK UNBOUND:                -0.579
REMARK SMILES COC(=O)Nc1nc2cc(C(=O)c3cccs3)ccc2[nH]1
REMARK SMILES IDX 6 1 7 2 8 3 9 4 10 5 18 6 19 7 20 8 21 9 5 11 3 12 4 13 2 15
REMARK SMILES IDX 1 16 11 17 12 18 13 19 14 20 17 21 15 22 16 23
REMARK H PARENT 21 10 5 14
REMARK Flexibility Score: inf
ROOT
ATOM      1  C   UNL     1     -27.103  -0.602   1.981  1.00  0.00     0.210 A 
ATOM      2  N   UNL     1     -26.019  -1.410   2.197  1.00  0.00    -0.213 NA
ATOM      3  C   UNL     1     -25.984  -2.382   1.275  1.00  0.00     0.091 A 
ATOM      4  C   UNL     1     -25.140  -3.461   0.999  1.00  0.00     0.043 A 
ATOM      5  C   UNL     1     -25.330  -4.336  -0.037  1.00  0.00     0.026 A 
ATOM      6  C   UNL     1     -26.453  -4.118  -0.866  1.00  0.00     0.014 A 
ATOM      7  C   UNL     1     -27.291  -3.069  -0.615  1.00  0.00     0.029 A 
ATOM      8  C   UNL     1     -27.062  -2.211   0.440  1.00  0.00     0.067 A 
ATOM      9  N   UNL     1     -27.710  -1.117   0.911  1.00  0.00    -0.324 N 
ATOM     10  H   UNL     1     -28.576  -0.766   0.453  1.00  0.00     0.170 HD
ENDROOT
BRANCH   1  11
ATOM     11  N   UNL     1     -27.459   0.530   2.763  1.00  0.00    -0.261 N 
ATOM     12  C   UNL     1     -28.647   0.593   3.487  1.00  0.00     0.413 C 
ATOM     13  O   UNL     1     -29.479  -0.339   3.496  1.00  0.00    -0.224 OA
ATOM     14  H   UNL     1     -26.807   1.368   2.809  1.00  0.00     0.176 HD
BRANCH  12  15
ATOM     15  O   UNL     1     -28.998   1.722   4.267  1.00  0.00    -0.453 OA
ATOM     16  C   UNL     1     -29.718   2.784   3.637  1.00  0.00     0.284 C 
ENDBRANCH  12  15
ENDBRANCH   1  11
BRANCH   5  17
ATOM     17  C   UNL     1     -24.469  -5.462  -0.341  1.00  0.00     0.203 C 
ATOM     18  O   UNL     1     -24.807  -6.181  -1.353  1.00  0.00    -0.288 OA
BRANCH  17  19
ATOM     19  C   UNL     1     -23.299  -5.785   0.417  1.00  0.00     0.075 A 
ATOM     20  C   UNL     1     -21.983  -5.496   0.488  1.00  0.00     0.024 A 
ATOM     21  S   UNL     1     -23.434  -7.025   1.798  1.00  0.00    -0.140 S 
ATOM     22  C   UNL     1     -21.163  -6.044   1.366  1.00  0.00     0.012 A 
ATOM     23  C   UNL     1     -21.673  -6.981   2.283  1.00  0.00     0.065 A 
ENDBRANCH  17  19
ENDBRANCH   5  17
TORSDOF 4
ENDMDL
