MODEL 1
REMARK VINA RESULT:    -4.466      0.000      0.000
REMARK INTER + INTRA:          -6.432
REMARK INTER:                  -6.686
REMARK INTRA:                   0.254
REMARK UNBOUND:                 0.254
REMARK SMILES CC[C@]1(c2cccc(O)c2)CCCCN(C)C1.Cl
REMARK SMILES IDX 3 1 2 2 1 3 4 4 5 5 10 6 6 7 8 8 7 9 9 10 11 12 12 13 13 14
REMARK SMILES IDX 17 16 15 17 16 18 14 19
REMARK H PARENT 9 11
REMARK Flexibility Score: 90.00
ROOT
ATOM      1  C   UNL     1      -2.291  -4.178 -10.901  1.00  0.00     0.008 C 
ENDROOT
BRANCH   1   2
ATOM      2  C   UNL     1      -1.009  -3.688 -11.450  1.00  0.00     0.010 C 
ATOM      3  C   UNL     1       0.210  -3.743 -10.639  1.00  0.00     0.005 C 
ENDBRANCH   1   2
BRANCH   1   4
ATOM      4  C   UNL     1      -3.131  -3.070 -10.421  1.00  0.00    -0.037 A 
ATOM      5  C   UNL     1      -3.836  -2.260 -11.323  1.00  0.00     0.004 A 
ATOM      6  C   UNL     1      -3.274  -2.742  -9.098  1.00  0.00     0.050 A 
ATOM      7  C   UNL     1      -4.626  -1.202 -10.934  1.00  0.00     0.004 A 
ATOM      8  C   UNL     1      -4.079  -1.666  -8.698  1.00  0.00     0.115 A 
ATOM      9  C   UNL     1      -4.754  -0.899  -9.608  1.00  0.00     0.046 A 
BRANCH   8  10
ATOM     10  O   UNL     1      -4.210  -1.353  -7.351  1.00  0.00    -0.508 OA
ATOM     11  H   UNL     1      -4.262  -2.072  -6.643  1.00  0.00     0.293 HD
ENDBRANCH   8  10
ENDBRANCH   1   4
BRANCH   1  12
ATOM     12  C   UNL     1      -2.100  -5.092  -9.693  1.00  0.00     0.013 C 
BRANCH  12  13
ATOM     13  C   UNL     1      -2.798  -6.416  -9.821  1.00  0.00     0.002 C 
BRANCH  13  14
ATOM     14  C   UNL     1      -1.867  -7.324 -10.640  1.00  0.00     0.016 CG0
ATOM     15  G   UNL     1      -2.445  -7.309 -12.044  1.00  0.00     0.000 G0
ENDBRANCH  13  14
ENDBRANCH  12  13
ENDBRANCH   1  12
BRANCH   1  16
ATOM     16  C   UNL     1      -3.039  -4.952 -12.006  1.00  0.00     0.095 C 
BRANCH  16  17
ATOM     17  N   UNL     1      -2.344  -6.013 -12.568  1.00  0.00    -0.305 NA
ATOM     18  C   UNL     1      -1.926  -5.895 -13.927  1.00  0.00     0.105 C 
BRANCH  17  19
ATOM     19  C   UNL     1      -2.442  -7.308 -12.046  1.00  0.00     0.084 CG0
ATOM     20  G   UNL     1      -1.872  -7.314 -10.638  1.00  0.00     0.000 G0
ENDBRANCH  17  19
ENDBRANCH  16  17
ENDBRANCH   1  16
TORSDOF 3
ENDMDL
MODEL 2
REMARK VINA RESULT:    -3.794     32.057     33.433
REMARK INTER + INTRA:          -5.425
REMARK INTER:                  -5.586
REMARK INTRA:                   0.161
REMARK UNBOUND:                 0.254
REMARK SMILES CC[C@]1(c2cccc(O)c2)CCCCN(C)C1.Cl
REMARK SMILES IDX 3 1 2 2 1 3 4 4 5 5 10 6 6 7 8 8 7 9 9 10 11 12 12 13 13 14
REMARK SMILES IDX 17 16 15 17 16 18 14 19
REMARK H PARENT 9 11
REMARK Flexibility Score: 90.00
ROOT
ATOM      1  C   UNL     1      13.302  -1.672  17.461  1.00  0.00     0.008 C 
ENDROOT
BRANCH   1   2
ATOM      2  C   UNL     1      12.906  -1.467  16.052  1.00  0.00     0.010 C 
ATOM      3  C   UNL     1      11.817  -0.545  15.718  1.00  0.00     0.005 C 
ENDBRANCH   1   2
BRANCH   1   4
ATOM      4  C   UNL     1      13.084  -3.063  17.886  1.00  0.00    -0.037 A 
ATOM      5  C   UNL     1      11.789  -3.591  17.981  1.00  0.00     0.004 A 
ATOM      6  C   UNL     1      14.097  -3.922  18.226  1.00  0.00     0.050 A 
ATOM      7  C   UNL     1      11.523  -4.880  18.385  1.00  0.00     0.004 A 
ATOM      8  C   UNL     1      13.831  -5.235  18.637  1.00  0.00     0.115 A 
ATOM      9  C   UNL     1      12.551  -5.715  18.716  1.00  0.00     0.046 A 
BRANCH   8  10
ATOM     10  O   UNL     1      14.873  -6.088  18.976  1.00  0.00    -0.508 OA
ATOM     11  H   UNL     1      15.501  -5.879  19.739  1.00  0.00     0.293 HD
ENDBRANCH   8  10
ENDBRANCH   1   4
BRANCH   1  12
ATOM     12  C   UNL     1      12.484  -0.821  18.429  1.00  0.00     0.013 C 
BRANCH  12  13
ATOM     13  C   UNL     1      13.319   0.063  19.311  1.00  0.00     0.002 C 
BRANCH  13  14
ATOM     14  C   UNL     1      13.668   1.307  18.480  1.00  0.00     0.016 CG0
ATOM     15  G   UNL     1      15.097   1.078  18.018  1.00  0.00     0.000 G0
ENDBRANCH  13  14
ENDBRANCH  12  13
ENDBRANCH   1  12
BRANCH   1  16
ATOM     16  C   UNL     1      14.795  -1.314  17.613  1.00  0.00     0.095 C 
BRANCH  16  17
ATOM     17  N   UNL     1      15.156  -0.052  17.166  1.00  0.00    -0.305 NA
ATOM     18  C   UNL     1      16.005   0.038  16.023  1.00  0.00     0.105 C 
BRANCH  17  19
ATOM     19  C   UNL     1      15.117   1.062  18.015  1.00  0.00     0.084 CG0
ATOM     20  G   UNL     1      13.685   1.280  18.472  1.00  0.00     0.000 G0
ENDBRANCH  17  19
ENDBRANCH  16  17
ENDBRANCH   1  16
TORSDOF 3
ENDMDL
MODEL 3
REMARK VINA RESULT:    -3.767     29.939     31.194
REMARK INTER + INTRA:          -5.385
REMARK INTER:                  -5.539
REMARK INTRA:                   0.155
REMARK UNBOUND:                 0.254
REMARK SMILES CC[C@]1(c2cccc(O)c2)CCCCN(C)C1.Cl
REMARK SMILES IDX 3 1 2 2 1 3 4 4 5 5 10 6 6 7 8 8 7 9 9 10 11 12 12 13 13 14
REMARK SMILES IDX 17 16 15 17 16 18 14 19
REMARK H PARENT 9 11
REMARK Flexibility Score: 90.00
ROOT
ATOM      1  C   UNL     1      11.643   0.735  16.258  1.00  0.00     0.008 C 
ENDROOT
BRANCH   1   2
ATOM      2  C   UNL     1      12.297   1.852  15.545  1.00  0.00     0.010 C 
ATOM      3  C   UNL     1      13.056   2.860  16.292  1.00  0.00     0.005 C 
ENDBRANCH   1   2
BRANCH   1   4
ATOM      4  C   UNL     1      10.283   0.495  15.752  1.00  0.00    -0.037 A 
ATOM      5  C   UNL     1       9.329   1.522  15.740  1.00  0.00     0.004 A 
ATOM      6  C   UNL     1       9.849  -0.717  15.280  1.00  0.00     0.050 A 
ATOM      7  C   UNL     1       8.038   1.353  15.291  1.00  0.00     0.004 A 
ATOM      8  C   UNL     1       8.537  -0.893  14.821  1.00  0.00     0.115 A 
ATOM      9  C   UNL     1       7.634   0.136  14.824  1.00  0.00     0.046 A 
BRANCH   8  10
ATOM     10  O   UNL     1       8.120  -2.130  14.346  1.00  0.00    -0.508 OA
ATOM     11  H   UNL     1       7.203  -2.261  13.944  1.00  0.00     0.293 HD
ENDBRANCH   8  10
ENDBRANCH   1   4
BRANCH   1  12
ATOM     12  C   UNL     1      11.475   1.009  17.750  1.00  0.00     0.013 C 
BRANCH  12  13
ATOM     13  C   UNL     1      11.374  -0.235  18.586  1.00  0.00     0.002 C 
BRANCH  13  14
ATOM     14  C   UNL     1      12.773  -0.486  19.170  1.00  0.00     0.016 CG0
ATOM     15  G   UNL     1      13.470  -1.364  18.146  1.00  0.00     0.000 G0
ENDBRANCH  13  14
ENDBRANCH  12  13
ENDBRANCH   1  12
BRANCH   1  16
ATOM     16  C   UNL     1      12.494  -0.538  16.072  1.00  0.00     0.095 C 
BRANCH  16  17
ATOM     17  N   UNL     1      13.577  -0.664  16.929  1.00  0.00    -0.305 NA
ATOM     18  C   UNL     1      14.886  -0.502  16.385  1.00  0.00     0.105 C 
BRANCH  17  19
ATOM     19  C   UNL     1      13.476  -1.369  18.135  1.00  0.00     0.084 CG0
ATOM     20  G   UNL     1      12.789  -0.486  19.162  1.00  0.00     0.000 G0
ENDBRANCH  17  19
ENDBRANCH  16  17
ENDBRANCH   1  16
TORSDOF 3
ENDMDL
MODEL 4
REMARK VINA RESULT:    -3.702      3.555      5.113
REMARK INTER + INTRA:          -5.287
REMARK INTER:                  -5.553
REMARK INTRA:                   0.266
REMARK UNBOUND:                 0.254
REMARK SMILES CC[C@]1(c2cccc(O)c2)CCCCN(C)C1.Cl
REMARK SMILES IDX 3 1 2 2 1 3 4 4 5 5 10 6 6 7 8 8 7 9 9 10 11 12 12 13 13 14
REMARK SMILES IDX 17 16 15 17 16 18 14 19
REMARK H PARENT 9 11
REMARK Flexibility Score: 90.00
ROOT
ATOM      1  C   UNL     1      -1.393  -1.220 -10.097  1.00  0.00     0.008 C 
ENDROOT
BRANCH   1   2
ATOM      2  C   UNL     1      -2.509  -0.259 -10.216  1.00  0.00     0.010 C 
ATOM      3  C   UNL     1      -3.328  -0.224 -11.431  1.00  0.00     0.005 C 
ENDBRANCH   1   2
BRANCH   1   4
ATOM      4  C   UNL     1      -0.113  -0.535  -9.863  1.00  0.00    -0.037 A 
ATOM      5  C   UNL     1       1.011  -1.245  -9.419  1.00  0.00     0.004 A 
ATOM      6  C   UNL     1       0.072   0.812 -10.040  1.00  0.00     0.050 A 
ATOM      7  C   UNL     1       2.230  -0.655  -9.170  1.00  0.00     0.004 A 
ATOM      8  C   UNL     1       1.312   1.415  -9.789  1.00  0.00     0.115 A 
ATOM      9  C   UNL     1       2.388   0.688  -9.358  1.00  0.00     0.046 A 
BRANCH   8  10
ATOM     10  O   UNL     1       1.477   2.782  -9.977  1.00  0.00    -0.508 OA
ATOM     11  H   UNL     1       1.991   3.348  -9.317  1.00  0.00     0.293 HD
ENDBRANCH   8  10
ENDBRANCH   1   4
BRANCH   1  12
ATOM     12  C   UNL     1      -1.186  -2.038 -11.370  1.00  0.00     0.013 C 
BRANCH  12  13
ATOM     13  C   UNL     1      -1.260  -3.523 -11.152  1.00  0.00     0.002 C 
BRANCH  13  14
ATOM     14  C   UNL     1      -2.752  -3.886 -11.108  1.00  0.00     0.016 CG0
ATOM     15  G   UNL     1      -3.058  -4.094  -9.635  1.00  0.00     0.000 G0
ENDBRANCH  13  14
ENDBRANCH  12  13
ENDBRANCH   1  12
BRANCH   1  16
ATOM     16  C   UNL     1      -1.688  -2.178  -8.925  1.00  0.00     0.095 C 
BRANCH  16  17
ATOM     17  N   UNL     1      -2.905  -2.841  -8.985  1.00  0.00    -0.305 NA
ATOM     18  C   UNL     1      -3.892  -2.521  -8.004  1.00  0.00     0.105 C 
BRANCH  17  19
ATOM     19  C   UNL     1      -3.033  -4.076  -9.632  1.00  0.00     0.084 CG0
ATOM     20  G   UNL     1      -2.748  -3.885 -11.112  1.00  0.00     0.000 G0
ENDBRANCH  17  19
ENDBRANCH  16  17
ENDBRANCH   1  16
TORSDOF 3
ENDMDL
MODEL 5
REMARK VINA RESULT:    -3.689     31.781     33.229
REMARK INTER + INTRA:          -5.268
REMARK INTER:                  -5.645
REMARK INTRA:                   0.378
REMARK UNBOUND:                 0.254
REMARK SMILES CC[C@]1(c2cccc(O)c2)CCCCN(C)C1.Cl
REMARK SMILES IDX 3 1 2 2 1 3 4 4 5 5 10 6 6 7 8 8 7 9 9 10 11 12 12 13 13 14
REMARK SMILES IDX 17 16 15 17 16 18 14 19
REMARK H PARENT 9 11
REMARK Flexibility Score: 90.00
ROOT
ATOM      1  C   UNL     1      13.829  -0.363  17.443  1.00  0.00     0.008 C 
ENDROOT
BRANCH   1   2
ATOM      2  C   UNL     1      14.986   0.547  17.318  1.00  0.00     0.010 C 
ATOM      3  C   UNL     1      15.914   0.409  16.192  1.00  0.00     0.005 C 
ENDBRANCH   1   2
BRANCH   1   4
ATOM      4  C   UNL     1      14.208  -1.634  18.078  1.00  0.00    -0.037 A 
ATOM      5  C   UNL     1      15.023  -1.653  19.219  1.00  0.00     0.004 A 
ATOM      6  C   UNL     1      13.820  -2.864  17.611  1.00  0.00     0.050 A 
ATOM      7  C   UNL     1      15.420  -2.811  19.848  1.00  0.00     0.004 A 
ATOM      8  C   UNL     1      14.222  -4.045  18.249  1.00  0.00     0.115 A 
ATOM      9  C   UNL     1      15.017  -4.022  19.363  1.00  0.00     0.046 A 
BRANCH   8  10
ATOM     10  O   UNL     1      13.816  -5.280  17.758  1.00  0.00    -0.508 OA
ATOM     11  H   UNL     1      12.839  -5.509  17.647  1.00  0.00     0.293 HD
ENDBRANCH   8  10
ENDBRANCH   1   4
BRANCH   1  12
ATOM     12  C   UNL     1      13.237  -0.749  16.090  1.00  0.00     0.013 C 
BRANCH  12  13
ATOM     13  C   UNL     1      11.894  -0.132  15.819  1.00  0.00     0.002 C 
BRANCH  13  14
ATOM     14  C   UNL     1      12.134   1.374  15.631  1.00  0.00     0.016 CG0
ATOM     15  G   UNL     1      11.632   2.011  16.915  1.00  0.00     0.000 G0
ENDBRANCH  13  14
ENDBRANCH  12  13
ENDBRANCH   1  12
BRANCH   1  16
ATOM     16  C   UNL     1      12.742   0.332  18.289  1.00  0.00     0.095 C 
BRANCH  16  17
ATOM     17  N   UNL     1      12.489   1.657  17.966  1.00  0.00    -0.305 NA
ATOM     18  C   UNL     1      12.718   2.647  18.968  1.00  0.00     0.105 C 
BRANCH  17  19
ATOM     19  C   UNL     1      11.621   2.001  16.922  1.00  0.00     0.084 CG0
ATOM     20  G   UNL     1      12.132   1.379  15.634  1.00  0.00     0.000 G0
ENDBRANCH  17  19
ENDBRANCH  16  17
ENDBRANCH   1  16
TORSDOF 3
ENDMDL
