MODEL 1
REMARK VINA RESULT:    -5.804      0.000      0.000
REMARK INTER + INTRA:          -7.196
REMARK INTER:                  -6.653
REMARK INTRA:                  -0.544
REMARK UNBOUND:                -0.544
REMARK SMILES N=C(N)NS(=O)(=O)c1ccc(N)cc1
REMARK SMILES IDX 8 1 9 2 10 3 11 4 13 5 14 6 5 7 6 8 7 9 4 10 1 11 2 12 3 14
REMARK SMILES IDX 12 18
REMARK H PARENT 1 13 3 15 3 16 4 17 12 19 12 20
REMARK Flexibility Score: inf
ROOT
ATOM      1  C   UNL     1     -29.262  12.401  -0.128  1.00  0.00     0.088 A 
ATOM      2  C   UNL     1     -27.902  12.649  -0.035  1.00  0.00     0.024 A 
ATOM      3  C   UNL     1     -27.013  12.295  -1.027  1.00  0.00     0.027 A 
ATOM      4  C   UNL     1     -27.470  11.665  -2.173  1.00  0.00     0.031 A 
ATOM      5  C   UNL     1     -28.820  11.420  -2.263  1.00  0.00     0.027 A 
ATOM      6  C   UNL     1     -29.704  11.774  -1.273  1.00  0.00     0.024 A 
ENDROOT
BRANCH   1   7
ATOM      7  S   UNL     1     -30.353  12.873   1.164  1.00  0.00     0.264 S 
ATOM      8  O   UNL     1     -29.585  13.741   2.116  1.00  0.00    -0.201 OA
ATOM      9  O   UNL     1     -31.436  13.721   0.566  1.00  0.00    -0.201 OA
BRANCH   7  10
ATOM     10  N   UNL     1     -31.076  11.528   1.924  1.00  0.00    -0.250 N 
ATOM     11  N   UNL     1     -32.271  12.791   3.469  1.00  0.00    -0.269 NA
ATOM     12  C   UNL     1     -31.775  11.632   3.172  1.00  0.00     0.199 C 
ATOM     13  H   UNL     1     -32.778  12.854   4.380  1.00  0.00     0.191 HD
ATOM     14  N   UNL     1     -31.897  10.495   4.019  1.00  0.00    -0.369 N 
ATOM     15  H   UNL     1     -31.452  10.541   4.957  1.00  0.00     0.159 HD
ATOM     16  H   UNL     1     -32.414   9.664   3.696  1.00  0.00     0.159 HD
ATOM     17  H   UNL     1     -31.039  10.552   1.504  1.00  0.00     0.183 HD
ENDBRANCH   7  10
ENDBRANCH   1   7
BRANCH   4  18
ATOM     18  N   UNL     1     -26.571  11.294  -3.203  1.00  0.00    -0.399 N 
ATOM     19  H   UNL     1     -26.531  11.854  -4.074  1.00  0.00     0.156 HD
ATOM     20  H   UNL     1     -25.970  10.476  -3.080  1.00  0.00     0.156 HD
ENDBRANCH   4  18
TORSDOF 3
ENDMDL
MODEL 2
REMARK VINA RESULT:    -5.766     30.953     33.190
REMARK INTER + INTRA:          -7.153
REMARK INTER:                  -6.682
REMARK INTRA:                  -0.471
REMARK UNBOUND:                -0.544
REMARK SMILES N=C(N)NS(=O)(=O)c1ccc(N)cc1
REMARK SMILES IDX 8 1 9 2 10 3 11 4 13 5 14 6 5 7 6 8 7 9 4 10 1 11 2 12 3 14
REMARK SMILES IDX 12 18
REMARK H PARENT 1 13 3 15 3 16 4 17 12 19 12 20
REMARK Flexibility Score: inf
ROOT
ATOM      1  C   UNL     1      -2.819  -4.985 -10.542  1.00  0.00     0.088 A 
ATOM      2  C   UNL     1      -2.455  -6.270 -10.174  1.00  0.00     0.024 A 
ATOM      3  C   UNL     1      -2.413  -7.316 -11.071  1.00  0.00     0.027 A 
ATOM      4  C   UNL     1      -2.741  -7.101 -12.400  1.00  0.00     0.031 A 
ATOM      5  C   UNL     1      -3.101  -5.824 -12.763  1.00  0.00     0.027 A 
ATOM      6  C   UNL     1      -3.144  -4.784 -11.867  1.00  0.00     0.024 A 
ENDROOT
BRANCH   1   7
ATOM      7  S   UNL     1      -2.857  -3.688  -9.360  1.00  0.00     0.264 S 
ATOM      8  O   UNL     1      -3.467  -4.234  -8.103  1.00  0.00    -0.201 OA
ATOM      9  O   UNL     1      -1.440  -3.314  -9.040  1.00  0.00    -0.201 OA
BRANCH   7  10
ATOM     10  N   UNL     1      -3.663  -2.303  -9.944  1.00  0.00    -0.250 N 
ATOM     11  N   UNL     1      -3.868  -1.296  -7.857  1.00  0.00    -0.269 NA
ATOM     12  C   UNL     1      -4.307  -1.362  -9.074  1.00  0.00     0.199 C 
ATOM     13  H   UNL     1      -4.344  -0.607  -7.233  1.00  0.00     0.191 HD
ATOM     14  N   UNL     1      -5.373  -0.554  -9.559  1.00  0.00    -0.369 N 
ATOM     15  H   UNL     1      -6.310  -0.678  -9.125  1.00  0.00     0.159 HD
ATOM     16  H   UNL     1      -5.204   0.124 -10.316  1.00  0.00     0.159 HD
ATOM     17  H   UNL     1      -3.723  -2.077 -10.982  1.00  0.00     0.183 HD
ENDBRANCH   7  10
ENDBRANCH   1   7
BRANCH   4  18
ATOM     18  N   UNL     1      -2.702  -8.164 -13.337  1.00  0.00    -0.399 N 
ATOM     19  H   UNL     1      -2.400  -9.106 -13.029  1.00  0.00     0.156 HD
ATOM     20  H   UNL     1      -2.971  -7.992 -14.308  1.00  0.00     0.156 HD
ENDBRANCH   4  18
TORSDOF 3
ENDMDL
MODEL 3
REMARK VINA RESULT:    -5.573      4.002      5.309
REMARK INTER + INTRA:          -6.931
REMARK INTER:                  -6.390
REMARK INTRA:                  -0.541
REMARK UNBOUND:                -0.544
REMARK SMILES N=C(N)NS(=O)(=O)c1ccc(N)cc1
REMARK SMILES IDX 8 1 9 2 10 3 11 4 13 5 14 6 5 7 6 8 7 9 4 10 1 11 2 12 3 14
REMARK SMILES IDX 12 18
REMARK H PARENT 1 13 3 15 3 16 4 17 12 19 12 20
REMARK Flexibility Score: inf
ROOT
ATOM      1  C   UNL     1     -29.961  11.990  -2.318  1.00  0.00     0.088 A 
ATOM      2  C   UNL     1     -30.070  12.247  -0.960  1.00  0.00     0.024 A 
ATOM      3  C   UNL     1     -28.970  12.411  -0.146  1.00  0.00     0.027 A 
ATOM      4  C   UNL     1     -27.694  12.320  -0.678  1.00  0.00     0.031 A 
ATOM      5  C   UNL     1     -27.589  12.064  -2.025  1.00  0.00     0.027 A 
ATOM      6  C   UNL     1     -28.686  11.901  -2.835  1.00  0.00     0.024 A 
ENDROOT
BRANCH   1   7
ATOM      7  S   UNL     1     -31.393  11.789  -3.312  1.00  0.00     0.264 S 
ATOM      8  O   UNL     1     -32.592  11.930  -2.421  1.00  0.00    -0.201 OA
ATOM      9  O   UNL     1     -31.435  12.921  -4.295  1.00  0.00    -0.201 OA
BRANCH   7  10
ATOM     10  N   UNL     1     -31.379  10.321  -4.180  1.00  0.00    -0.250 N 
ATOM     11  N   UNL     1     -33.390  10.718  -5.279  1.00  0.00    -0.269 NA
ATOM     12  C   UNL     1     -32.525   9.835  -4.892  1.00  0.00     0.199 C 
ATOM     13  H   UNL     1     -34.220  10.353  -5.796  1.00  0.00     0.191 HD
ATOM     14  N   UNL     1     -32.672   8.442  -5.143  1.00  0.00    -0.369 N 
ATOM     15  H   UNL     1     -33.486   7.957  -4.716  1.00  0.00     0.159 HD
ATOM     16  H   UNL     1     -31.986   7.949  -5.732  1.00  0.00     0.159 HD
ATOM     17  H   UNL     1     -30.517   9.700  -4.230  1.00  0.00     0.183 HD
ENDBRANCH   7  10
ENDBRANCH   1   7
BRANCH   4  18
ATOM     18  N   UNL     1     -26.552  12.486   0.145  1.00  0.00    -0.399 N 
ATOM     19  H   UNL     1     -26.504  11.998   1.057  1.00  0.00     0.156 HD
ATOM     20  H   UNL     1     -25.787  13.086  -0.169  1.00  0.00     0.156 HD
ENDBRANCH   4  18
TORSDOF 3
ENDMDL
MODEL 4
REMARK VINA RESULT:    -5.561     12.923     14.891
REMARK INTER + INTRA:          -6.917
REMARK INTER:                  -6.415
REMARK INTRA:                  -0.503
REMARK UNBOUND:                -0.544
REMARK SMILES N=C(N)NS(=O)(=O)c1ccc(N)cc1
REMARK SMILES IDX 8 1 9 2 10 3 11 4 13 5 14 6 5 7 6 8 7 9 4 10 1 11 2 12 3 14
REMARK SMILES IDX 12 18
REMARK H PARENT 1 13 3 15 3 16 4 17 12 19 12 20
REMARK Flexibility Score: inf
ROOT
ATOM      1  C   UNL     1     -16.640  11.305   3.675  1.00  0.00     0.088 A 
ATOM      2  C   UNL     1     -17.189  12.494   3.220  1.00  0.00     0.024 A 
ATOM      3  C   UNL     1     -18.546  12.670   3.061  1.00  0.00     0.027 A 
ATOM      4  C   UNL     1     -19.419  11.637   3.360  1.00  0.00     0.031 A 
ATOM      5  C   UNL     1     -18.871  10.459   3.812  1.00  0.00     0.027 A 
ATOM      6  C   UNL     1     -17.518  10.285   3.969  1.00  0.00     0.024 A 
ENDROOT
BRANCH   1   7
ATOM      7  S   UNL     1     -14.903  11.131   3.860  1.00  0.00     0.264 S 
ATOM      8  O   UNL     1     -14.244  12.114   2.938  1.00  0.00    -0.201 OA
ATOM      9  O   UNL     1     -14.546  11.529   5.262  1.00  0.00    -0.201 OA
BRANCH   7  10
ATOM     10  N   UNL     1     -14.382   9.527   3.605  1.00  0.00    -0.250 N 
ATOM     11  N   UNL     1     -12.118  10.057   3.552  1.00  0.00    -0.269 NA
ATOM     12  C   UNL     1     -13.037   9.204   3.227  1.00  0.00     0.199 C 
ATOM     13  H   UNL     1     -11.143   9.811   3.272  1.00  0.00     0.191 HD
ATOM     14  N   UNL     1     -12.761   7.994   2.530  1.00  0.00    -0.369 N 
ATOM     15  H   UNL     1     -12.371   8.068   1.569  1.00  0.00     0.159 HD
ATOM     16  H   UNL     1     -12.949   7.086   2.978  1.00  0.00     0.159 HD
ATOM     17  H   UNL     1     -15.035   8.694   3.715  1.00  0.00     0.183 HD
ENDBRANCH   7  10
ENDBRANCH   1   7
BRANCH   4  18
ATOM     18  N   UNL     1     -20.818  11.802   3.204  1.00  0.00    -0.399 N 
ATOM     19  H   UNL     1     -21.454  11.018   3.438  1.00  0.00     0.156 HD
ATOM     20  H   UNL     1     -21.187  12.691   2.860  1.00  0.00     0.156 HD
ENDBRANCH   4  18
TORSDOF 3
ENDMDL
MODEL 5
REMARK VINA RESULT:    -5.514      1.620      2.139
REMARK INTER + INTRA:          -6.864
REMARK INTER:                  -6.330
REMARK INTRA:                  -0.533
REMARK UNBOUND:                -0.544
REMARK SMILES N=C(N)NS(=O)(=O)c1ccc(N)cc1
REMARK SMILES IDX 8 1 9 2 10 3 11 4 13 5 14 6 5 7 6 8 7 9 4 10 1 11 2 12 3 14
REMARK SMILES IDX 12 18
REMARK H PARENT 1 13 3 15 3 16 4 17 12 19 12 20
REMARK Flexibility Score: inf
ROOT
ATOM      1  C   UNL     1     -29.367  12.144  -0.312  1.00  0.00     0.088 A 
ATOM      2  C   UNL     1     -28.018  12.430  -0.173  1.00  0.00     0.024 A 
ATOM      3  C   UNL     1     -27.105  12.209  -1.181  1.00  0.00     0.027 A 
ATOM      4  C   UNL     1     -27.523  11.682  -2.392  1.00  0.00     0.031 A 
ATOM      5  C   UNL     1     -28.863  11.400  -2.528  1.00  0.00     0.027 A 
ATOM      6  C   UNL     1     -29.771  11.619  -1.521  1.00  0.00     0.024 A 
ENDROOT
BRANCH   1   7
ATOM      7  S   UNL     1     -30.489  12.443   1.004  1.00  0.00     0.264 S 
ATOM      8  O   UNL     1     -31.847  12.665   0.405  1.00  0.00    -0.201 OA
ATOM      9  O   UNL     1     -30.570  11.196   1.834  1.00  0.00    -0.201 OA
BRANCH   7  10
ATOM     10  N   UNL     1     -29.985  13.728   2.005  1.00  0.00    -0.250 N 
ATOM     11  N   UNL     1     -31.919  13.744   3.298  1.00  0.00    -0.269 NA
ATOM     12  C   UNL     1     -30.880  14.406   2.898  1.00  0.00     0.199 C 
ATOM     13  H   UNL     1     -32.562  14.248   3.948  1.00  0.00     0.191 HD
ATOM     14  N   UNL     1     -30.607  15.742   3.304  1.00  0.00    -0.369 N 
ATOM     15  H   UNL     1     -31.288  16.479   3.031  1.00  0.00     0.159 HD
ATOM     16  H   UNL     1     -29.759  15.953   3.849  1.00  0.00     0.159 HD
ATOM     17  H   UNL     1     -28.983  14.083   2.011  1.00  0.00     0.183 HD
ENDBRANCH   7  10
ENDBRANCH   1   7
BRANCH   4  18
ATOM     18  N   UNL     1     -26.599  11.450  -3.440  1.00  0.00    -0.399 N 
ATOM     19  H   UNL     1     -25.828  12.123  -3.601  1.00  0.00     0.156 HD
ATOM     20  H   UNL     1     -26.701  10.621  -4.030  1.00  0.00     0.156 HD
ENDBRANCH   4  18
TORSDOF 3
ENDMDL
