MODEL 1
REMARK VINA RESULT:    -7.536      0.000      0.000
REMARK INTER + INTRA:         -13.908
REMARK INTER:                 -12.382
REMARK INTRA:                  -1.525
REMARK UNBOUND:                -1.525
REMARK SMILES CN[C@@H]1C(O[C@H]2O[C@H](CO)[C@@H](N)[C@H](O)[C@H]2O)O[C@H]2C[C@@H](N)[C@@H](O[C@H]3[C@H](O)[C@@H](O)[C@H](N)C[C@@H]3N)O[C@@H]2[C@@H]1O
REMARK SMILES IDX 3 1 4 2 17 3 18 4 19 5 20 6 22 7 34 8 35 9 36 10 2 11 1 12
REMARK SMILES IDX 5 14 6 15 7 16 15 17 8 18 13 19 11 20 16 21 9 23 10 24 14 26
REMARK SMILES IDX 12 28 37 31 23 33 24 34 32 35 25 36 31 37 27 38 29 39 33 40
REMARK SMILES IDX 26 43 28 45 30 47 21 50
REMARK H PARENT 2 13 16 22 10 25 14 27 12 29 12 30 37 32 33 41 33 42 26 44
REMARK H PARENT 28 46 30 48 30 49 21 51 21 52
REMARK Flexibility Score: inf
ROOT
ATOM      1  C   UNL     1      13.884   0.934  17.583  1.00  0.00     0.142 C 
ATOM      2  C   UNL     1      14.383  -0.033  16.552  1.00  0.00     0.273 C 
ATOM      3  O   UNL     1      13.418  -0.842  16.022  1.00  0.00    -0.345 OA
ATOM      4  C   UNL     1      12.208  -0.295  15.730  1.00  0.00     0.155 C 
ATOM      5  C   UNL     1      11.327  -1.413  15.209  1.00  0.00     0.059 C 
ATOM      6  C   UNL     1       9.939  -1.268  15.715  1.00  0.00     0.110 C 
ATOM      7  C   UNL     1       9.629   0.231  15.779  1.00  0.00     0.267 C 
ATOM      8  O   UNL     1      10.325   0.763  16.833  1.00  0.00    -0.342 OA
ATOM      9  C   UNL     1      11.599   0.294  16.995  1.00  0.00     0.181 C 
ATOM     10  C   UNL     1      12.509   1.466  17.354  1.00  0.00     0.168 C 
ENDROOT
BRANCH   1  11
ATOM     11  N   UNL     1      14.865   1.981  17.787  1.00  0.00    -0.310 NA
ATOM     12  C   UNL     1      14.448   3.018  18.677  1.00  0.00     0.102 C 
ATOM     13  H   UNL     1      15.730   1.528  18.203  1.00  0.00     0.122 HD
ENDBRANCH   1  11
BRANCH   2  14
ATOM     14  O   UNL     1      15.261  -0.919  17.226  1.00  0.00    -0.319 OA
BRANCH  14  15
ATOM     15  C   UNL     1      14.715  -1.506  18.333  1.00  0.00     0.285 C 
ATOM     16  O   UNL     1      14.340  -2.803  17.981  1.00  0.00    -0.342 OA
ATOM     17  C   UNL     1      15.668  -1.623  19.495  1.00  0.00     0.201 C 
ATOM     18  C   UNL     1      13.876  -3.556  19.028  1.00  0.00     0.166 C 
ATOM     19  C   UNL     1      16.150  -3.045  19.709  1.00  0.00     0.167 C 
ATOM     20  C   UNL     1      14.946  -3.869  20.063  1.00  0.00     0.114 C 
BRANCH  17  21
ATOM     21  O   UNL     1      16.791  -0.825  19.355  1.00  0.00    -0.385 OA
ATOM     22  H   UNL     1      16.619   0.044  19.764  1.00  0.00     0.211 HD
ENDBRANCH  17  21
BRANCH  18  23
ATOM     23  C   UNL     1      12.644  -2.969  19.701  1.00  0.00     0.189 C 
BRANCH  23  24
ATOM     24  O   UNL     1      11.565  -3.142  18.868  1.00  0.00    -0.394 OA
ATOM     25  H   UNL     1      11.839  -3.685  18.095  1.00  0.00     0.210 HD
ENDBRANCH  23  24
ENDBRANCH  18  23
BRANCH  19  26
ATOM     26  O   UNL     1      17.049  -2.987  20.794  1.00  0.00    -0.388 OA
ATOM     27  H   UNL     1      17.006  -3.805  21.329  1.00  0.00     0.211 HD
ENDBRANCH  19  26
BRANCH  20  28
ATOM     28  N   UNL     1      15.307  -5.252  20.104  1.00  0.00    -0.323 NA
ATOM     29  H   UNL     1      15.099  -5.752  19.196  1.00  0.00     0.119 HD
ATOM     30  H   UNL     1      14.719  -5.760  20.821  1.00  0.00     0.119 HD
ENDBRANCH  20  28
ENDBRANCH  14  15
ENDBRANCH   2  14
BRANCH  10  31
ATOM     31  O   UNL     1      12.400   2.408  16.359  1.00  0.00    -0.388 OA
ATOM     32  H   UNL     1      13.287   2.702  16.000  1.00  0.00     0.211 HD
ENDBRANCH  10  31
BRANCH   7  33
ATOM     33  O   UNL     1       8.266   0.323  15.886  1.00  0.00    -0.343 OA
BRANCH  33  34
ATOM     34  C   UNL     1       7.564   0.078  14.737  1.00  0.00     0.169 C 
ATOM     35  C   UNL     1       7.435   1.389  13.988  1.00  0.00     0.084 C 
ATOM     36  C   UNL     1       6.154  -0.413  14.977  1.00  0.00     0.175 C 
ATOM     37  C   UNL     1       6.796   2.400  14.882  1.00  0.00     0.043 C 
ATOM     38  C   UNL     1       5.395   0.544  15.838  1.00  0.00     0.162 C 
ATOM     39  C   UNL     1       6.096   1.840  16.072  1.00  0.00     0.084 C 
BRANCH  35  40
ATOM     40  N   UNL     1       6.680   1.229  12.758  1.00  0.00    -0.325 NA
ATOM     41  H   UNL     1       6.313   0.245  12.667  1.00  0.00     0.119 HD
ATOM     42  H   UNL     1       7.202   1.538  11.917  1.00  0.00     0.119 HD
ENDBRANCH  35  40
BRANCH  36  43
ATOM     43  O   UNL     1       5.529  -0.446  13.725  1.00  0.00    -0.388 OA
ATOM     44  H   UNL     1       5.958  -1.155  13.148  1.00  0.00     0.211 HD
ENDBRANCH  36  43
BRANCH  38  45
ATOM     45  O   UNL     1       5.203  -0.063  17.097  1.00  0.00    -0.389 OA
ATOM     46  H   UNL     1       5.967   0.056  17.687  1.00  0.00     0.211 HD
ENDBRANCH  38  45
BRANCH  39  47
ATOM     47  N   UNL     1       5.072   2.817  16.472  1.00  0.00    -0.325 NA
ATOM     48  H   UNL     1       4.572   3.200  15.660  1.00  0.00     0.119 HD
ATOM     49  H   UNL     1       5.436   3.520  17.130  1.00  0.00     0.119 HD
ENDBRANCH  39  47
ENDBRANCH  33  34
ENDBRANCH   7  33
BRANCH   6  50
ATOM     50  N   UNL     1       9.765  -1.832  17.018  1.00  0.00    -0.323 NA
ATOM     51  H   UNL     1       8.927  -2.422  17.081  1.00  0.00     0.119 HD
ATOM     52  H   UNL     1      10.631  -2.354  17.263  1.00  0.00     0.119 HD
ENDBRANCH   6  50
TORSDOF 16
ENDMDL
MODEL 2
REMARK VINA RESULT:    -7.458     27.613     32.083
REMARK INTER + INTRA:         -13.779
REMARK INTER:                 -12.191
REMARK INTRA:                  -1.589
REMARK UNBOUND:                -1.525
REMARK SMILES CN[C@@H]1C(O[C@H]2O[C@H](CO)[C@@H](N)[C@H](O)[C@H]2O)O[C@H]2C[C@@H](N)[C@@H](O[C@H]3[C@H](O)[C@@H](O)[C@H](N)C[C@@H]3N)O[C@@H]2[C@@H]1O
REMARK SMILES IDX 3 1 4 2 17 3 18 4 19 5 20 6 22 7 34 8 35 9 36 10 2 11 1 12
REMARK SMILES IDX 5 14 6 15 7 16 15 17 8 18 13 19 11 20 16 21 9 23 10 24 14 26
REMARK SMILES IDX 12 28 37 31 23 33 24 34 32 35 25 36 31 37 27 38 29 39 33 40
REMARK SMILES IDX 26 43 28 45 30 47 21 50
REMARK H PARENT 2 13 16 22 10 25 14 27 12 29 12 30 37 32 33 41 33 42 26 44
REMARK H PARENT 28 46 30 48 30 49 21 51 21 52
REMARK Flexibility Score: inf
ROOT
ATOM      1  C   UNL     1     -12.469  12.794   5.741  1.00  0.00     0.142 C 
ATOM      2  C   UNL     1     -12.318  12.984   4.262  1.00  0.00     0.273 C 
ATOM      3  O   UNL     1     -13.480  12.869   3.555  1.00  0.00    -0.345 OA
ATOM      4  C   UNL     1     -14.607  13.427   4.072  1.00  0.00     0.155 C 
ATOM      5  C   UNL     1     -15.742  13.110   3.118  1.00  0.00     0.059 C 
ATOM      6  C   UNL     1     -16.985  12.795   3.866  1.00  0.00     0.110 C 
ATOM      7  C   UNL     1     -17.013  13.693   5.107  1.00  0.00     0.267 C 
ATOM      8  O   UNL     1     -16.077  13.223   5.991  1.00  0.00    -0.342 OA
ATOM      9  C   UNL     1     -14.895  12.816   5.436  1.00  0.00     0.181 C 
ATOM     10  C   UNL     1     -13.749  13.292   6.325  1.00  0.00     0.168 C 
ENDROOT
BRANCH   1  11
ATOM     11  N   UNL     1     -11.301  13.312   6.423  1.00  0.00    -0.310 NA
ATOM     12  C   UNL     1     -10.669  12.382   7.305  1.00  0.00     0.102 C 
ATOM     13  H   UNL     1     -10.593  13.582   5.679  1.00  0.00     0.122 HD
ENDBRANCH   1  11
BRANCH   2  14
ATOM     14  O   UNL     1     -11.512  11.911   3.801  1.00  0.00    -0.319 OA
BRANCH  14  15
ATOM     15  C   UNL     1     -11.888  10.688   4.283  1.00  0.00     0.285 C 
ATOM     16  O   UNL     1     -12.897  10.200   3.453  1.00  0.00    -0.342 OA
ATOM     17  C   UNL     1     -10.781   9.665   4.282  1.00  0.00     0.201 C 
ATOM     18  C   UNL     1     -13.297   8.923   3.750  1.00  0.00     0.166 C 
ATOM     19  C   UNL     1     -10.954   8.626   3.191  1.00  0.00     0.167 C 
ATOM     20  C   UNL     1     -12.222   7.880   3.490  1.00  0.00     0.114 C 
BRANCH  17  21
ATOM     21  O   UNL     1      -9.527  10.227   4.121  1.00  0.00    -0.385 OA
ATOM     22  H   UNL     1      -9.041   9.736   3.432  1.00  0.00     0.211 HD
ENDBRANCH  17  21
BRANCH  18  23
ATOM     23  C   UNL     1     -13.853   8.771   5.158  1.00  0.00     0.189 C 
BRANCH  23  24
ATOM     24  O   UNL     1     -15.157   9.204   5.165  1.00  0.00    -0.394 OA
ATOM     25  H   UNL     1     -15.173  10.175   5.319  1.00  0.00     0.210 HD
ENDBRANCH  23  24
ENDBRANCH  18  23
BRANCH  19  26
ATOM     26  O   UNL     1      -9.837   7.771   3.294  1.00  0.00    -0.388 OA
ATOM     27  H   UNL     1      -9.957   7.124   4.019  1.00  0.00     0.211 HD
ENDBRANCH  19  26
BRANCH  20  28
ATOM     28  N   UNL     1     -12.532   7.006   2.401  1.00  0.00    -0.323 NA
ATOM     29  H   UNL     1     -13.376   6.401   2.595  1.00  0.00     0.119 HD
ATOM     30  H   UNL     1     -11.745   6.315   2.254  1.00  0.00     0.119 HD
ENDBRANCH  20  28
ENDBRANCH  14  15
ENDBRANCH   2  14
BRANCH  10  31
ATOM     31  O   UNL     1     -13.848  14.658   6.449  1.00  0.00    -0.388 OA
ATOM     32  H   UNL     1     -14.557  15.052   5.863  1.00  0.00     0.211 HD
ENDBRANCH  10  31
BRANCH   7  33
ATOM     33  O   UNL     1     -18.305  13.652   5.563  1.00  0.00    -0.343 OA
BRANCH  33  34
ATOM     34  C   UNL     1     -19.157  14.570   5.011  1.00  0.00     0.169 C 
ATOM     35  C   UNL     1     -20.155  14.971   6.079  1.00  0.00     0.084 C 
ATOM     36  C   UNL     1     -19.968  14.031   3.854  1.00  0.00     0.175 C 
ATOM     37  C   UNL     1     -20.837  13.747   6.593  1.00  0.00     0.043 C 
ATOM     38  C   UNL     1     -20.732  12.813   4.262  1.00  0.00     0.162 C 
ATOM     39  C   UNL     1     -20.709  12.541   5.729  1.00  0.00     0.084 C 
BRANCH  35  40
ATOM     40  N   UNL     1     -21.119  15.933   5.573  1.00  0.00    -0.325 NA
ATOM     41  H   UNL     1     -22.042  15.468   5.367  1.00  0.00     0.119 HD
ATOM     42  H   UNL     1     -20.762  16.482   4.770  1.00  0.00     0.119 HD
ENDBRANCH  35  40
BRANCH  36  43
ATOM     43  O   UNL     1     -20.896  15.025   3.526  1.00  0.00    -0.388 OA
ATOM     44  H   UNL     1     -20.595  15.512   2.695  1.00  0.00     0.211 HD
ENDBRANCH  36  43
BRANCH  38  45
ATOM     45  O   UNL     1     -20.150  11.700   3.620  1.00  0.00    -0.389 OA
ATOM     46  H   UNL     1     -19.899  10.998   4.245  1.00  0.00     0.211 HD
ENDBRANCH  38  45
BRANCH  39  47
ATOM     47  N   UNL     1     -21.859  11.672   6.023  1.00  0.00    -0.325 NA
ATOM     48  H   UNL     1     -21.671  11.047   6.817  1.00  0.00     0.119 HD
ATOM     49  H   UNL     1     -22.225  11.207   5.181  1.00  0.00     0.119 HD
ENDBRANCH  39  47
ENDBRANCH  33  34
ENDBRANCH   7  33
BRANCH   6  50
ATOM     50  N   UNL     1     -17.046  11.428   4.282  1.00  0.00    -0.323 NA
ATOM     51  H   UNL     1     -17.990  11.034   4.197  1.00  0.00     0.119 HD
ATOM     52  H   UNL     1     -16.346  10.890   3.732  1.00  0.00     0.119 HD
ENDBRANCH   6  50
TORSDOF 16
ENDMDL
MODEL 3
REMARK VINA RESULT:    -7.056      2.197      2.749
REMARK INTER + INTRA:         -13.119
REMARK INTER:                 -11.509
REMARK INTRA:                  -1.610
REMARK UNBOUND:                -1.525
REMARK SMILES CN[C@@H]1C(O[C@H]2O[C@H](CO)[C@@H](N)[C@H](O)[C@H]2O)O[C@H]2C[C@@H](N)[C@@H](O[C@H]3[C@H](O)[C@@H](O)[C@H](N)C[C@@H]3N)O[C@@H]2[C@@H]1O
REMARK SMILES IDX 3 1 4 2 17 3 18 4 19 5 20 6 22 7 34 8 35 9 36 10 2 11 1 12
REMARK SMILES IDX 5 14 6 15 7 16 15 17 8 18 13 19 11 20 16 21 9 23 10 24 14 26
REMARK SMILES IDX 12 28 37 31 23 33 24 34 32 35 25 36 31 37 27 38 29 39 33 40
REMARK SMILES IDX 26 43 28 45 30 47 21 50
REMARK H PARENT 2 13 16 22 10 25 14 27 12 29 12 30 37 32 33 41 33 42 26 44
REMARK H PARENT 28 46 30 48 30 49 21 51 21 52
REMARK Flexibility Score: inf
ROOT
ATOM      1  C   UNL     1      13.648  -1.305  19.283  1.00  0.00     0.142 C 
ATOM      2  C   UNL     1      14.290  -1.697  17.987  1.00  0.00     0.273 C 
ATOM      3  O   UNL     1      13.459  -1.647  16.905  1.00  0.00    -0.345 OA
ATOM      4  C   UNL     1      12.598  -0.599  16.802  1.00  0.00     0.155 C 
ATOM      5  C   UNL     1      11.773  -0.820  15.549  1.00  0.00     0.059 C 
ATOM      6  C   UNL     1      10.361  -0.420  15.773  1.00  0.00     0.110 C 
ATOM      7  C   UNL     1      10.373   0.802  16.697  1.00  0.00     0.267 C 
ATOM      8  O   UNL     1      10.702   0.378  17.957  1.00  0.00    -0.342 OA
ATOM      9  C   UNL     1      11.687  -0.570  18.021  1.00  0.00     0.181 C 
ATOM     10  C   UNL     1      12.612  -0.235  19.188  1.00  0.00     0.168 C 
ENDROOT
BRANCH   1  11
ATOM     11  N   UNL     1      14.670  -1.012  20.268  1.00  0.00    -0.310 NA
ATOM     12  C   UNL     1      14.536  -1.734  21.493  1.00  0.00     0.102 C 
ATOM     13  H   UNL     1      15.606  -1.274  19.840  1.00  0.00     0.122 HD
ENDBRANCH   1  11
BRANCH   2  14
ATOM     14  O   UNL     1      14.634  -3.068  18.110  1.00  0.00    -0.319 OA
BRANCH  14  15
ATOM     15  C   UNL     1      13.652  -3.839  18.667  1.00  0.00     0.285 C 
ATOM     16  O   UNL     1      12.923  -4.411  17.624  1.00  0.00    -0.342 OA
ATOM     17  C   UNL     1      14.171  -4.971  19.515  1.00  0.00     0.201 C 
ATOM     18  C   UNL     1      11.968  -5.305  18.033  1.00  0.00     0.166 C 
ATOM     19  C   UNL     1      14.021  -6.319  18.837  1.00  0.00     0.167 C 
ATOM     20  C   UNL     1      12.551  -6.561  18.660  1.00  0.00     0.114 C 
BRANCH  17  21
ATOM     21  O   UNL     1      15.506  -4.825  19.851  1.00  0.00    -0.385 OA
ATOM     22  H   UNL     1      15.574  -4.332  20.690  1.00  0.00     0.211 HD
ENDBRANCH  17  21
BRANCH  18  23
ATOM     23  C   UNL     1      10.915  -4.695  18.947  1.00  0.00     0.189 C 
BRANCH  23  24
ATOM     24  O   UNL     1      10.351  -3.616  18.309  1.00  0.00    -0.394 OA
ATOM     25  H   UNL     1      10.666  -2.789  18.739  1.00  0.00     0.210 HD
ENDBRANCH  23  24
ENDBRANCH  18  23
BRANCH  19  26
ATOM     26  O   UNL     1      14.577  -7.261  19.728  1.00  0.00    -0.388 OA
ATOM     27  H   UNL     1      15.445  -7.578  19.406  1.00  0.00     0.211 HD
ENDBRANCH  19  26
BRANCH  20  28
ATOM     28  N   UNL     1      12.350  -7.735  17.868  1.00  0.00    -0.323 NA
ATOM     29  H   UNL     1      12.393  -8.622  18.441  1.00  0.00     0.119 HD
ATOM     30  H   UNL     1      13.135  -7.840  17.167  1.00  0.00     0.119 HD
ENDBRANCH  20  28
ENDBRANCH  14  15
ENDBRANCH   2  14
BRANCH  10  31
ATOM     31  O   UNL     1      13.095   1.038  18.996  1.00  0.00    -0.388 OA
ATOM     32  H   UNL     1      13.094   1.586  19.833  1.00  0.00     0.211 HD
ENDBRANCH  10  31
BRANCH   7  33
ATOM     33  O   UNL     1       9.126   1.361  16.587  1.00  0.00    -0.343 OA
BRANCH  33  34
ATOM     34  C   UNL     1       8.847   1.955  15.386  1.00  0.00     0.169 C 
ATOM     35  C   UNL     1       8.114   3.250  15.673  1.00  0.00     0.084 C 
ATOM     36  C   UNL     1       7.932   1.139  14.500  1.00  0.00     0.175 C 
ATOM     37  C   UNL     1       6.904   2.954  16.496  1.00  0.00     0.043 C 
ATOM     38  C   UNL     1       6.659   0.809  15.209  1.00  0.00     0.162 C 
ATOM     39  C   UNL     1       6.478   1.526  16.505  1.00  0.00     0.084 C 
BRANCH  35  40
ATOM     40  N   UNL     1       7.755   3.943  14.448  1.00  0.00    -0.325 NA
ATOM     41  H   UNL     1       8.259   3.529  13.620  1.00  0.00     0.119 HD
ATOM     42  H   UNL     1       7.873   4.971  14.513  1.00  0.00     0.119 HD
ENDBRANCH  35  40
BRANCH  36  43
ATOM     43  O   UNL     1       7.612   1.952  13.408  1.00  0.00    -0.388 OA
ATOM     44  H   UNL     1       7.552   2.915  13.706  1.00  0.00     0.211 HD
ENDBRANCH  36  43
BRANCH  38  45
ATOM     45  O   UNL     1       6.665  -0.574  15.492  1.00  0.00    -0.389 OA
ATOM     46  H   UNL     1       6.799  -0.759  16.438  1.00  0.00     0.211 HD
ENDBRANCH  38  45
BRANCH  39  47
ATOM     47  N   UNL     1       5.040   1.504  16.811  1.00  0.00    -0.325 NA
ATOM     48  H   UNL     1       4.740   0.589  17.170  1.00  0.00     0.119 HD
ATOM     49  H   UNL     1       4.469   1.878  16.041  1.00  0.00     0.119 HD
ENDBRANCH  39  47
ENDBRANCH  33  34
ENDBRANCH   7  33
BRANCH   6  50
ATOM     50  N   UNL     1       9.585  -1.454  16.383  1.00  0.00    -0.323 NA
ATOM     51  H   UNL     1       8.575  -1.276  16.319  1.00  0.00     0.119 HD
ATOM     52  H   UNL     1       9.852  -2.360  15.947  1.00  0.00     0.119 HD
ENDBRANCH   6  50
TORSDOF 16
ENDMDL
MODEL 4
REMARK VINA RESULT:    -7.044      2.121      2.677
REMARK INTER + INTRA:         -13.100
REMARK INTER:                 -11.622
REMARK INTRA:                  -1.478
REMARK UNBOUND:                -1.525
REMARK SMILES CN[C@@H]1C(O[C@H]2O[C@H](CO)[C@@H](N)[C@H](O)[C@H]2O)O[C@H]2C[C@@H](N)[C@@H](O[C@H]3[C@H](O)[C@@H](O)[C@H](N)C[C@@H]3N)O[C@@H]2[C@@H]1O
REMARK SMILES IDX 3 1 4 2 17 3 18 4 19 5 20 6 22 7 34 8 35 9 36 10 2 11 1 12
REMARK SMILES IDX 5 14 6 15 7 16 15 17 8 18 13 19 11 20 16 21 9 23 10 24 14 26
REMARK SMILES IDX 12 28 37 31 23 33 24 34 32 35 25 36 31 37 27 38 29 39 33 40
REMARK SMILES IDX 26 43 28 45 30 47 21 50
REMARK H PARENT 2 13 16 22 10 25 14 27 12 29 12 30 37 32 33 41 33 42 26 44
REMARK H PARENT 28 46 30 48 30 49 21 51 21 52
REMARK Flexibility Score: inf
ROOT
ATOM      1  C   UNL     1      13.535   0.270  17.778  1.00  0.00     0.142 C 
ATOM      2  C   UNL     1      13.804  -0.299  16.417  1.00  0.00     0.273 C 
ATOM      3  O   UNL     1      12.690  -0.469  15.645  1.00  0.00    -0.345 OA
ATOM      4  C   UNL     1      11.740   0.504  15.661  1.00  0.00     0.155 C 
ATOM      5  C   UNL     1      10.610   0.039  14.764  1.00  0.00     0.059 C 
ATOM      6  C   UNL     1       9.294   0.400  15.348  1.00  0.00     0.110 C 
ATOM      7  C   UNL     1       9.457   1.758  16.041  1.00  0.00     0.267 C 
ATOM      8  O   UNL     1      10.182   1.564  17.187  1.00  0.00    -0.342 OA
ATOM      9  C   UNL     1      11.229   0.690  17.082  1.00  0.00     0.181 C 
ATOM     10  C   UNL     1      12.418   1.258  17.852  1.00  0.00     0.168 C 
ENDROOT
BRANCH   1  11
ATOM     11  N   UNL     1      14.767   0.771  18.351  1.00  0.00    -0.310 NA
ATOM     12  C   UNL     1      15.836   0.927  17.415  1.00  0.00     0.102 C 
ATOM     13  H   UNL     1      14.559   1.727  18.764  1.00  0.00     0.122 HD
ENDBRANCH   1  11
BRANCH   2  14
ATOM     14  O   UNL     1      14.300  -1.612  16.624  1.00  0.00    -0.319 OA
BRANCH  14  15
ATOM     15  C   UNL     1      13.559  -2.352  17.503  1.00  0.00     0.285 C 
ATOM     16  O   UNL     1      12.978  -3.400  16.788  1.00  0.00    -0.342 OA
ATOM     17  C   UNL     1      14.370  -2.971  18.612  1.00  0.00     0.201 C 
ATOM     18  C   UNL     1      12.293  -4.296  17.565  1.00  0.00     0.166 C 
ATOM     19  C   UNL     1      14.555  -4.466  18.431  1.00  0.00     0.167 C 
ATOM     20  C   UNL     1      13.192  -5.090  18.501  1.00  0.00     0.114 C 
BRANCH  17  21
ATOM     21  O   UNL     1      15.630  -2.412  18.737  1.00  0.00    -0.385 OA
ATOM     22  H   UNL     1      16.300  -3.067  18.465  1.00  0.00     0.211 HD
ENDBRANCH  17  21
BRANCH  18  23
ATOM     23  C   UNL     1      11.140  -3.674  18.339  1.00  0.00     0.189 C 
BRANCH  23  24
ATOM     24  O   UNL     1      10.427  -2.863  17.489  1.00  0.00    -0.394 OA
ATOM     25  H   UNL     1      11.000  -2.613  16.729  1.00  0.00     0.210 HD
ENDBRANCH  23  24
ENDBRANCH  18  23
BRANCH  19  26
ATOM     26  O   UNL     1      15.353  -4.889  19.514  1.00  0.00    -0.388 OA
ATOM     27  H   UNL     1      15.653  -5.812  19.388  1.00  0.00     0.211 HD
ENDBRANCH  19  26
BRANCH  20  28
ATOM     28  N   UNL     1      13.281  -6.476  18.161  1.00  0.00    -0.323 NA
ATOM     29  H   UNL     1      12.408  -6.833  17.684  1.00  0.00     0.119 HD
ATOM     30  H   UNL     1      13.357  -7.062  19.037  1.00  0.00     0.119 HD
ENDBRANCH  20  28
ENDBRANCH  14  15
ENDBRANCH   2  14
BRANCH  10  31
ATOM     31  O   UNL     1      12.698   2.503  17.342  1.00  0.00    -0.388 OA
ATOM     32  H   UNL     1      12.063   3.207  17.662  1.00  0.00     0.211 HD
ENDBRANCH  10  31
BRANCH   7  33
ATOM     33  O   UNL     1       8.185   2.228  16.238  1.00  0.00    -0.343 OA
BRANCH  33  34
ATOM     34  C   UNL     1       7.998   3.558  15.975  1.00  0.00     0.169 C 
ATOM     35  C   UNL     1       8.334   4.328  17.237  1.00  0.00     0.084 C 
ATOM     36  C   UNL     1       6.570   3.916  15.628  1.00  0.00     0.175 C 
ATOM     37  C   UNL     1       7.498   3.810  18.360  1.00  0.00     0.043 C 
ATOM     38  C   UNL     1       5.634   3.477  16.707  1.00  0.00     0.162 C 
ATOM     39  C   UNL     1       6.313   3.006  17.949  1.00  0.00     0.084 C 
BRANCH  35  40
ATOM     40  N   UNL     1       8.142   5.756  17.058  1.00  0.00    -0.325 NA
ATOM     41  H   UNL     1       8.326   6.038  16.060  1.00  0.00     0.119 HD
ATOM     42  H   UNL     1       8.677   6.326  17.739  1.00  0.00     0.119 HD
ENDBRANCH  35  40
BRANCH  36  43
ATOM     43  O   UNL     1       6.519   5.313  15.563  1.00  0.00    -0.388 OA
ATOM     44  H   UNL     1       6.294   5.689  16.473  1.00  0.00     0.211 HD
ENDBRANCH  36  43
BRANCH  38  45
ATOM     45  O   UNL     1       4.874   2.398  16.209  1.00  0.00    -0.389 OA
ATOM     46  H   UNL     1       5.366   1.864  15.561  1.00  0.00     0.211 HD
ENDBRANCH  38  45
BRANCH  39  47
ATOM     47  N   UNL     1       5.328   3.098  19.038  1.00  0.00    -0.325 NA
ATOM     48  H   UNL     1       5.723   2.792  19.936  1.00  0.00     0.119 HD
ATOM     49  H   UNL     1       4.427   2.667  18.790  1.00  0.00     0.119 HD
ENDBRANCH  39  47
ENDBRANCH  33  34
ENDBRANCH   7  33
BRANCH   6  50
ATOM     50  N   UNL     1       8.834  -0.555  16.307  1.00  0.00    -0.323 NA
ATOM     51  H   UNL     1       7.813  -0.542  16.416  1.00  0.00     0.119 HD
ATOM     52  H   UNL     1       9.185  -1.493  16.024  1.00  0.00     0.119 HD
ENDBRANCH   6  50
TORSDOF 16
ENDMDL
MODEL 5
REMARK VINA RESULT:    -7.023     26.386     31.884
REMARK INTER + INTRA:         -13.065
REMARK INTER:                 -12.469
REMARK INTRA:                  -0.596
REMARK UNBOUND:                -1.525
REMARK SMILES CN[C@@H]1C(O[C@H]2O[C@H](CO)[C@@H](N)[C@H](O)[C@H]2O)O[C@H]2C[C@@H](N)[C@@H](O[C@H]3[C@H](O)[C@@H](O)[C@H](N)C[C@@H]3N)O[C@@H]2[C@@H]1O
REMARK SMILES IDX 3 1 4 2 17 3 18 4 19 5 20 6 22 7 34 8 35 9 36 10 2 11 1 12
REMARK SMILES IDX 5 14 6 15 7 16 15 17 8 18 13 19 11 20 16 21 9 23 10 24 14 26
REMARK SMILES IDX 12 28 37 31 23 33 24 34 32 35 25 36 31 37 27 38 29 39 33 40
REMARK SMILES IDX 26 43 28 45 30 47 21 50
REMARK H PARENT 2 13 16 22 10 25 14 27 12 29 12 30 37 32 33 41 33 42 26 44
REMARK H PARENT 28 46 30 48 30 49 21 51 21 52
REMARK Flexibility Score: inf
ROOT
ATOM      1  C   UNL     1     -12.422  14.470   4.659  1.00  0.00     0.142 C 
ATOM      2  C   UNL     1     -12.246  13.457   3.569  1.00  0.00     0.273 C 
ATOM      3  O   UNL     1     -13.251  12.537   3.484  1.00  0.00    -0.345 OA
ATOM      4  C   UNL     1     -14.532  12.965   3.640  1.00  0.00     0.155 C 
ATOM      5  C   UNL     1     -15.425  11.743   3.548  1.00  0.00     0.059 C 
ATOM      6  C   UNL     1     -16.534  11.829   4.531  1.00  0.00     0.110 C 
ATOM      7  C   UNL     1     -16.949  13.301   4.629  1.00  0.00     0.267 C 
ATOM      8  O   UNL     1     -15.970  13.972   5.314  1.00  0.00    -0.342 OA
ATOM      9  C   UNL     1     -14.686  13.614   5.008  1.00  0.00     0.181 C 
ATOM     10  C   UNL     1     -13.831  14.877   4.937  1.00  0.00     0.168 C 
ENDROOT
BRANCH   1  11
ATOM     11  N   UNL     1     -11.547  15.601   4.424  1.00  0.00    -0.310 NA
ATOM     12  C   UNL     1     -10.604  15.847   5.468  1.00  0.00     0.102 C 
ATOM     13  H   UNL     1     -11.000  15.399   3.537  1.00  0.00     0.122 HD
ENDBRANCH   1  11
BRANCH   2  14
ATOM     14  O   UNL     1     -11.095  12.701   3.908  1.00  0.00    -0.319 OA
BRANCH  14  15
ATOM     15  C   UNL     1     -11.375  11.458   4.404  1.00  0.00     0.285 C 
ATOM     16  O   UNL     1     -11.545  10.599   3.318  1.00  0.00    -0.342 OA
ATOM     17  C   UNL     1     -10.275  10.879   5.256  1.00  0.00     0.201 C 
ATOM     18  C   UNL     1     -11.721   9.285   3.665  1.00  0.00     0.166 C 
ATOM     19  C   UNL     1      -9.514   9.775   4.549  1.00  0.00     0.167 C 
ATOM     20  C   UNL     1     -10.487   8.660   4.298  1.00  0.00     0.114 C 
BRANCH  17  21
ATOM     21  O   UNL     1      -9.348  11.826   5.658  1.00  0.00    -0.385 OA
ATOM     22  H   UNL     1      -9.480  12.643   5.141  1.00  0.00     0.211 HD
ENDBRANCH  17  21
BRANCH  18  23
ATOM     23  C   UNL     1     -12.944   9.045   4.538  1.00  0.00     0.189 C 
BRANCH  23  24
ATOM     24  O   UNL     1     -13.982   8.634   3.738  1.00  0.00    -0.394 OA
ATOM     25  H   UNL     1     -14.561   8.026   4.250  1.00  0.00     0.210 HD
ENDBRANCH  23  24
ENDBRANCH  18  23
BRANCH  19  26
ATOM     26  O   UNL     1      -8.508   9.363   5.448  1.00  0.00    -0.388 OA
ATOM     27  H   UNL     1      -8.863   8.731   6.106  1.00  0.00     0.211 HD
ENDBRANCH  19  26
BRANCH  20  28
ATOM     28  N   UNL     1      -9.873   7.663   3.477  1.00  0.00    -0.323 NA
ATOM     29  H   UNL     1      -9.093   8.053   2.880  1.00  0.00     0.119 HD
ATOM     30  H   UNL     1     -10.571   7.286   2.778  1.00  0.00     0.119 HD
ENDBRANCH  20  28
ENDBRANCH  14  15
ENDBRANCH   2  14
BRANCH  10  31
ATOM     31  O   UNL     1     -14.396  15.719   4.008  1.00  0.00    -0.388 OA
ATOM     32  H   UNL     1     -15.335  15.465   3.771  1.00  0.00     0.211 HD
ENDBRANCH  10  31
BRANCH   7  33
ATOM     33  O   UNL     1     -18.178  13.300   5.235  1.00  0.00    -0.343 OA
BRANCH  33  34
ATOM     34  C   UNL     1     -19.122  12.496   4.658  1.00  0.00     0.169 C 
ATOM     35  C   UNL     1     -19.341  12.988   3.241  1.00  0.00     0.084 C 
ATOM     36  C   UNL     1     -20.472  12.555   5.339  1.00  0.00     0.175 C 
ATOM     37  C   UNL     1     -19.718  14.432   3.279  1.00  0.00     0.043 C 
ATOM     38  C   UNL     1     -20.975  13.961   5.404  1.00  0.00     0.162 C 
ATOM     39  C   UNL     1     -20.173  14.933   4.606  1.00  0.00     0.084 C 
BRANCH  35  40
ATOM     40  N   UNL     1     -20.351  12.203   2.554  1.00  0.00    -0.325 NA
ATOM     41  H   UNL     1     -20.366  12.427   1.524  1.00  0.00     0.119 HD
ATOM     42  H   UNL     1     -21.289  12.275   2.991  1.00  0.00     0.119 HD
ENDBRANCH  35  40
BRANCH  36  43
ATOM     43  O   UNL     1     -21.353  11.825   4.533  1.00  0.00    -0.388 OA
ATOM     44  H   UNL     1     -22.295  11.927   4.879  1.00  0.00     0.211 HD
ENDBRANCH  36  43
BRANCH  38  45
ATOM     45  O   UNL     1     -20.922  14.379   6.750  1.00  0.00    -0.389 OA
ATOM     46  H   UNL     1     -20.778  13.638   7.364  1.00  0.00     0.211 HD
ENDBRANCH  38  45
BRANCH  39  47
ATOM     47  N   UNL     1     -21.034  16.099   4.358  1.00  0.00    -0.325 NA
ATOM     48  H   UNL     1     -21.809  16.151   5.030  1.00  0.00     0.119 HD
ATOM     49  H   UNL     1     -21.310  16.180   3.369  1.00  0.00     0.119 HD
ENDBRANCH  39  47
ENDBRANCH  33  34
ENDBRANCH   7  33
BRANCH   6  50
ATOM     50  N   UNL     1     -16.156  11.368   5.831  1.00  0.00    -0.323 NA
ATOM     51  H   UNL     1     -16.800  11.689   6.564  1.00  0.00     0.119 HD
ATOM     52  H   UNL     1     -16.085  10.331   5.799  1.00  0.00     0.119 HD
ENDBRANCH   6  50
TORSDOF 16
ENDMDL
